*Heading
** Job name: Check2Inter Model name: 2ContactProp
** Generated by: Abaqus/CAE 6.14-1
*Preprint, echo=NO, model=NO, history=NO, contact=NO
**
** PARTS
**
*Part, name=FND
*Node
      1,          -8.,          -2.
      2,         -8.5,          -2.
      3,          -9.,          -2.
      4,         -9.5,          -2.
      5,         -10.,          -2.
      6,        -10.5,          -2.
      7,         -11.,          -2.
      8,          -8.,         -2.5
      9,         -8.5,         -2.5
     10,          -9.,         -2.5
     11,         -9.5,         -2.5
     12,         -10.,         -2.5
     13,        -10.5,         -2.5
     14,         -11.,         -2.5
     15,          -8.,          -3.
     16,         -8.5,          -3.
     17,          -9.,          -3.
     18,         -9.5,          -3.
     19,         -10.,          -3.
     20,        -10.5,          -3.
** ... 20 like lines cut
*Element, type=CPE4R
 1,  1, 22, 23,  8
 2,  2, 24, 25,  9
 3,  3, 26, 27, 10
 4,  4, 28, 29, 11
 5,  5, 30, 31, 12
 6,  6, 32, 33, 13
 7,  8, 23, 35, 15
 8,  9, 25, 37, 16
 9, 10, 27, 39, 17
10, 11, 29, 41, 18
11, 12, 31, 43, 19
12, 13, 33, 45, 20
13, 22,  2,  9, 23
14, 24,  3, 10, 25
15, 26,  4, 11, 27
16, 28,  5, 12, 29
17, 30,  6, 13, 31
18, 32,  7, 14, 33
19, 23,  9, 16, 35
20, 25, 10, 17, 37
** ... 4 like lines cut
*Nset, nset=FND-REFPT_, internal
 46,
*Nset, nset=CORNERS
 15, 21
*Nset, nset=MD
 11,
*Elset, elset=_BOT_F_S3, internal
  7,  8,  9, 10, 11, 12, 19, 20, 21, 22, 23, 24
*Nset, nset=BOT_NODES
 15, 16, 17, 18, 19, 20, 21, 35, 37, 39, 41, 43, 45
*Nset, nset=WHOLE_FND
  1,  2,  3,  4,  5,  6,  7,  8,  9, 10, 11, 12, 13, 14, 15, 16
 17, 18, 19, 20, 21, 22, 23, 24, 25, 26, 27, 28, 29, 30, 31, 32
 33, 35, 37, 39, 41, 43, 45
*Elset, elset=WHOLE_FND, generate
  1,  24,   1
*Surface, type=ELEMENT, name=BOT_F
_BOT_F_S3, S3
** Section: Section-1-WHOLE_FND
*Solid Section, elset=WHOLE_FND, material=FOUNDATION
,
*End Part
**  
*Part, name=MASS
*Node
      1,           0.,           1.
*Nset, nset=MASS-REFPT_, internal
 1,
*Nset, nset=MASS
 1,
*Nset, nset=_PickedSet5, internal
 1,
*Element, type=MASS, elset=_PickedSet5_MASS_INERTIA-1__
1, 1
*Mass, elset=_PickedSet5_MASS_INERTIA-1__
1e+06, 
*End Part
**  
*Part, name=PIER
*Node
      1,           0.,         -1.5
      2,           0.,         -5.5
      3,           0.,         -3.5
*Element, type=B21
1, 1, 2
*Nset, nset=PIER-REFPT_, internal
 3,
*Nset, nset=PIER
 1, 2
*Elset, elset=PIER
 1,
** Section: Section-2-PIER  Profile: Profile-1
*Beam Section, elset=PIER, material=PIER, poisson = 0.33, temperature=GRADIENTS, section=RECT
1., 0.1
0.,0.,-1.
*End Part
**  
*Part, name=SOIL
*Node
      1,          13.,        15.75
      2,          13.,         3.75
      3,          20.,         3.75
      4,          20.,        15.75
      5,           7.,         3.75
      6,           7.,        15.75
      7,           0.,        15.75
      8,           0.,         3.75
      9,          13.,        15.25
     10,          13.,        14.75
     11,          13.,        14.25
     12,          13.,        13.75
     13,          13.,        13.25
     14,          13.,        12.75
     15,          13.,        12.25
     16,          13.,        11.75
     17,          13.,        11.25
     18,          13.,        10.75
     19,          13.,        10.25
     20,          13.,         9.75
** ... 1105 like lines cut
*Element, type=CPE4R
   1,    1,    9, 1397, 1396
   2,    9,   10, 1399, 1397
   3,   10,   11, 1401, 1399
   4,   11,   12, 1403, 1401
   5,   12,   13, 1405, 1403
   6,   13,   14, 1407, 1405
   7,   14,   15, 1409, 1407
   8,   15,   16, 1411, 1409
   9,   16,   17, 1413, 1411
  10,   17,   18, 1415, 1413
  11,   18,   19, 1417, 1415
  12,   19,   20, 1419, 1417
  13,   20,   21, 1421, 1419
  14,   21,   22, 1423, 1421
  15,   22,   23, 1425, 1423
  16,   23,   24, 1427, 1425
  17,   24,   25, 1429, 1427
  18,   25,   26, 1431, 1429
  19,   26,   27, 1433, 1431
  20,   27,   28, 1435, 1433
** ... 1036 like lines cut
*Nset, nset=LEFT_LAYER
   7,   8,  96,  97,  98,  99, 100, 101, 102, 103, 104, 105, 106, 107, 108, 109
 110, 111, 112, 113, 114, 115, 116, 117, 118
*Nset, nset=RIGHT_LAYER
  3,  4, 38, 39, 40, 41, 42, 43, 44, 45, 46, 47, 48, 49, 50, 51
 52, 53, 54, 55, 56, 57, 58, 59, 60
*Nset, nset=UNDERFND_1, generate
 469,  607,   69
*Nset, nset=UNDERFND_2
 448,
*Elset, elset=_BASE_SOIL_S4, internal
 409, 433, 457, 481, 505, 529, 697, 721, 745, 769, 793, 817
*Nset, nset=BOTTOM_LAYER
    2,    3,    5,    8,   32,   33,   34,   35,   36,   37,  119,  120,  121,  122,  123,  124
  125,  126,  127,  128,  129,  130,  131,  132,  133,  134,  135,  723,  771,  819,  867,  915
  963, 1011, 1059, 1107, 1155, 1203, 1251, 1252, 1300, 1348, 1443, 1491, 1539
*Nset, nset=SOIL_WHOLE
    1,    2,    3,    4,    5,    6,    7,    8,    9,   10,   11,   12,   13,   14,   15,   16
   17,   18,   19,   20,   21,   22,   23,   24,   25,   26,   27,   28,   29,   30,   31,   32
   33,   34,   35,   36,   37,   38,   39,   40,   41,   42,   43,   44,   45,   46,   47,   48
   49,   50,   51,   52,   53,   54,   55,   56,   57,   58,   59,   60,   61,   62,   63,   64
   65,   66,   67,   68,   69,   70,   71,   72,   73,   74,   75,   76,   77,   78,   79,   80
   81,   82,   83,   84,   85,   86,   87,   88,   89,   90,   91,   92,   93,   94,   95,   96
   97,   98,   99,  100,  101,  102,  103,  104,  105,  106,  107,  108,  109,  110,  111,  112
  113,  114,  115,  116,  117,  118,  119,  120,  121,  122,  123,  124,  125,  126,  127,  128
  129,  130,  131,  132,  133,  134,  135,  136,  137,  138,  139,  140,  141,  142,  143,  144
  145,  146,  147,  148,  149,  150,  151,  152,  153,  154,  155,  156,  157,  158,  159,  160
  161,  162,  163,  164,  165,  166,  167,  168,  169,  170,  171,  172,  173,  174,  175,  176
  177,  178,  179,  180,  181,  182,  183,  184,  185,  186,  187,  188,  189,  190,  191,  192
  193,  194,  195,  196,  197,  198,  199,  200,  201,  202,  203,  204,  205,  206,  207,  208
  209,  210,  211,  212,  213,  214,  215,  216,  217,  218,  219,  220,  221,  222,  223,  224
  225,  226,  227,  228,  229,  230,  231,  232,  233,  234,  235,  236,  237,  238,  239,  240
  241,  242,  243,  244,  245,  246,  247,  248,  249,  250,  251,  252,  253,  254,  255,  256
  257,  258,  259,  260,  261,  262,  263,  264,  265,  266,  267,  268,  269,  270,  271,  272
  273,  274,  275,  276,  277,  278,  279,  280,  281,  282,  283,  284,  285,  286,  287,  288
  289,  290,  291,  292,  293,  294,  295,  296,  297,  298,  299,  300,  301,  302,  303,  304
  305,  306,  307,  308,  309,  310,  311,  312,  313,  314,  315,  316,  317,  318,  319,  320
** ... 51 like lines cut
*Elset, elset=SOIL_WHOLE, generate
    1,  1056,     1
*Nset, nset=SOILUNDERFND
  138,  139,  140,  141,  142,  143,  144,  820,  868,  916,  964, 1012, 1060
*Surface, type=ELEMENT, name=BASE_SOIL
_BASE_SOIL_S4, S4
** Section: Section-3-SOIL_WHOLE
*Solid Section, elset=SOIL_WHOLE, material=SOIL
,
*End Part
**  
**
** ASSEMBLY
**
*Assembly, name=Assembly
**  
*Instance, name=FND-1, part=FND
        27.5,          29.,           0.
*End Instance
**  
*Instance, name=SOIL-1, part=SOIL
          8.,        10.25,           0.
*End Instance
**  
*Instance, name=PIER-1, part=PIER
         18.,         32.5,           0.
*End Instance
**  
*Instance, name=MASS-1, part=MASS
         18.,          30.,           0.
*End Instance
**  
*Node
      1,          18.,          27.
*MPC
PIN, SOIL-1.118, SOIL-1.38
PIN, SOIL-1.117, SOIL-1.39
PIN, SOIL-1.116, SOIL-1.40
PIN, SOIL-1.115, SOIL-1.41
PIN, SOIL-1.114, SOIL-1.42
PIN, SOIL-1.113, SOIL-1.43
PIN, SOIL-1.112, SOIL-1.44
PIN, SOIL-1.111, SOIL-1.45
PIN, SOIL-1.110, SOIL-1.46
PIN, SOIL-1.109, SOIL-1.47
PIN, SOIL-1.108, SOIL-1.48
PIN, SOIL-1.107, SOIL-1.49
PIN, SOIL-1.106, SOIL-1.50
PIN, SOIL-1.105, SOIL-1.51
PIN, SOIL-1.104, SOIL-1.52
PIN, SOIL-1.103, SOIL-1.53
PIN, SOIL-1.102, SOIL-1.54
PIN, SOIL-1.101, SOIL-1.55
PIN, SOIL-1.100, SOIL-1.56
PIN, SOIL-1.99, SOIL-1.57
** ... 5 like lines cut
*Nset, nset=M_SET-9, instance=FND-1
  1,  2,  3,  4,  5,  6,  7, 22, 24, 26, 28, 30, 32, 46
*Nset, nset=M_TOPFND, instance=FND-1
  1,  2,  3,  4,  5,  6,  7, 22, 24, 26, 28, 30, 32, 46
*Nset, nset=M_TOPFND, instance=PIER-1
 2,
*Nset, nset=RP_F
 1,
*Nset, nset=S_SET-10, instance=PIER-1
 1, 2
*Nset, nset=S_SET-11, instance=PIER-1
 3,
*Nset, nset=WIRE-1-SET-1, instance=SOIL-1
   3,   4,   7,   8,  38,  39,  40,  41,  42,  43,  44,  45,  46,  47,  48,  49
  51,  52,  53,  54,  55,  56,  57,  58,  59,  60,  96,  97,  98,  99, 100, 101
 102, 103, 104, 105, 106, 107, 108, 109, 110, 111, 112, 113, 114, 115
*Nset, nset=RP_F_CNS_, internal
 1,
*Elset, elset=_M_SURF-1_S1, internal, instance=FND-1, generate
 1,  6,  1
*Elset, elset=_M_SURF-1_S1_1, internal, instance=FND-1
  1,  2,  3,  4,  5,  6, 13, 14, 15, 16, 17, 18
*Elset, elset=_M_SURF-1_S1_2, internal, instance=FND-1
  1,  2,  3,  4,  5,  6, 13, 14, 15, 16, 17, 18
*Elset, elset=_M_SURF-FNDTOP_S1, internal, instance=FND-1
  1,  2,  3,  4,  5,  6, 13, 14, 15, 16, 17, 18
*Nset, nset=_PICKEDSET62, internal
 1,
*Nset, nset=_PickedSet30, internal
 1,
*Elset, elset=_SURF_SOIL_BOT_S4, internal, instance=SOIL-1
 409, 433, 457, 481, 505, 529, 697, 721, 745, 769, 793, 817
*Elset, elset=_S_PIER_SNEG, internal, instance=PIER-1
 1,
*Elset, elset=_S_SURF-3_SNEG, internal, instance=PIER-1
 1,
*Surface, type=ELEMENT, name=M_SURF-FNDTOP
_M_SURF-FNDTOP_S1, S1
*Surface, type=ELEMENT, name=SURF_SOIL_BOT
_SURF_SOIL_BOT_S4, S4
*Surface, type=ELEMENT, name=S_PIER
_S_PIER_SNEG, SNEG
*Surface, type=ELEMENT, name=S_SURF-3
_S_SURF-3_SNEG, SNEG
*Elset, elset=_m_FND_perim_S2, internal, instance=FND-1
 18, 24
*Elset, elset=_m_FND_perim_S3, internal, instance=FND-1
  7,  8,  9, 10, 11, 12, 19, 20, 21, 22, 23, 24
*Elset, elset=_m_FND_perim_S4, internal, instance=FND-1
 1, 7
*Elset, elset=_m_FND_perim_S4, internal, instance=SOIL-1
 409, 433, 457, 481, 505, 529, 697, 721, 745, 769, 793, 817
*Surface, type=ELEMENT, name=m_FND_perim
_m_FND_perim_S2, S2
_m_FND_perim_S3, S3
_m_FND_perim_S4, S4
*Surface, type=NODE, name=RP_F_CNS__CNS_, internal
RP_F_CNS_, 1.
** Constraint: F-P-1
*Tie, name=F-P-1, adjust=yes, position tolerance=0.5, type=NODE TO SURFACE
S_PIER, RP_F_CNS__CNS_
** Constraint: M-F
*Coupling, constraint name=M-F, ref node=MASS-1.MASS, surface=M_SURF-FNDTOP
*Distributing, weighting method=UNIFORM
** Constraint: RigidBody-1
*Rigid Body, ref node=_PickedSet30, elset=FND-1.WHOLE_FND, position=CENTER OF MASS
*End Assembly
*Amplitude, name=EQ
             0.,          0.0124,           0.005,          0.0092,            0.01,          0.0056,           0.015,         -0.0004
           0.02,         -0.0032,           0.025,         -0.0004,            0.03,          0.0048,           0.035,          0.0112
           0.04,           0.016,           0.045,          0.0168,            0.05,           0.014,           0.055,            0.01
           0.06,          0.0056,           0.065,           0.002,            0.07,          0.0004,           0.075,          0.0008
           0.08,          0.0036,           0.085,          0.0068,            0.09,          0.0104,           0.095,           0.012
            0.1,          0.0132,           0.105,          0.0124,            0.11,          0.0092,           0.115,          0.0064
           0.12,          0.0032,           0.125,          0.0028,            0.13,          0.0064,           0.135,          0.0108
           0.14,          0.0136,           0.145,          0.0136,            0.15,           0.012,           0.155,           0.008
           0.16,          0.0016,           0.165,         -0.0004,            0.17,          0.0044,           0.175,          0.0088
           0.18,          0.0136,           0.185,          0.0172,            0.19,           0.014,           0.195,          0.0056
            0.2,         -0.0076,           0.205,         -0.0192,            0.21,         -0.0208,           0.215,          -0.006
           0.22,           0.026,           0.225,          0.0636,            0.23,          0.0868,           0.235,          0.0852
           0.24,          0.0572,           0.245,          0.0016,            0.25,         -0.0628,           0.255,           -0.11
           0.26,          -0.118,           0.265,         -0.0816,            0.27,         -0.0208,           0.275,          0.0372
           0.28,          0.0832,           0.285,           0.106,            0.29,          0.0984,           0.295,          0.0684
            0.3,           0.032,           0.305,         -0.0096,            0.31,           -0.04,           0.315,         -0.0544
           0.32,         -0.0516,           0.325,          -0.024,            0.33,          0.0076,           0.335,           0.034
           0.34,          0.0544,           0.345,          0.0548,            0.35,          0.0368,           0.355,          0.0168
           0.36,          -0.004,           0.365,         -0.0264,            0.37,         -0.0424,           0.375,         -0.0432
           0.38,         -0.0228,           0.385,          0.0136,            0.39,          0.0472,           0.395,          0.0544
** ... 231 like lines cut
*Amplitude, name=Ramp
             0.,              0.,             0.1,             0.1,             0.2,             0.2,             0.3,             0.3
            0.5,             0.5,             0.6,             0.6,             0.8,             0.8,             0.9,             0.9
             1.,              1.
** 
** MATERIALS
** 
*Material, name=FOUNDATION
*Density
 2.1,
*Elastic
 2e+06, 0.3
*Plastic
2200.,0.
*Material, name=MASS
*Density
3.,
*Material, name=PIER
*Density
3.,
*Elastic
 2e+10, 0.33
*Material, name=SOIL
*Damping, beta=0.0017
*Density
 1.8,
*Depvar
      2,
*Elastic, dependencies=2
  8560.,   0.48, ,     0.,     0.
  8560.,   0.48, ,     0.,  8560.
 14480.,   0.48, ,     0., 14480.
 20400.,   0.48, ,     0., 20400.
 26320.,   0.48, ,     0., 26320.
 32240.,   0.48, ,     0., 32240.
 38160.,   0.48, ,     0., 38160.
 44080.,   0.48, ,     0., 44080.
 50000.,   0.48, ,     0., 50000.
 55920.,   0.48, ,     0., 55920.
 61840.,   0.48, ,     0., 61840.
 67760.,   0.48, ,     0., 67760.
 73680.,   0.48, ,     0., 73680.
 79600.,   0.48, ,     0., 79600.
 85520.,   0.48, ,     0., 85520.
 91440.,   0.48, ,     0., 91440.
 97360.,   0.48, ,     0., 97360.
103280.,   0.48, ,     0.,103280.
109200.,   0.48, ,     0.,109200.
115120.,   0.48, ,     0.,115120.
** ... 12 like lines cut
*Plastic, dependencies=2, hardening=COMBINED, datatype=PARAMETERS, number backstresses=1
  0.74,  8560.,  1283., ,     0.,     0.
  0.74,  8560.,  1283., ,     0.,   4.28
  1.25, 14480.,  1283., ,     0.,   7.24
  1.77, 20400.,  1283., ,     0.,   10.2
  2.28, 26320.,  1283., ,     0.,  13.16
  2.79, 32240.,  1283., ,     0.,  16.12
   3.3, 38160.,  1283., ,     0.,  19.08
  3.82, 44080.,  1283., ,     0.,  22.04
  4.33, 50000.,  1283., ,     0.,    25.
  4.84, 55920.,  1283., ,     0.,  27.96
  5.36, 61840.,  1283., ,     0.,  30.92
  5.87, 67760.,  1283., ,     0.,  33.88
  6.38, 73680.,  1283., ,     0.,  36.84
  6.89, 79600.,  1283., ,     0.,   39.8
  7.41, 85520.,  1283., ,     0.,  42.76
  7.92, 91440.,  1283., ,     0.,  45.72
  8.43, 97360.,  1283., ,     0.,  48.68
  8.94,103280.,  1283., ,     0.,  51.64
  9.46,109200.,  1283., ,     0.,   54.6
  9.97,115120.,  1283., ,     0.,  57.56
** ... 12 like lines cut
*User Defined Field
** 
** INTERACTION PROPERTIES
** 
*Surface Interaction, name=Cohesive
1.,
*Surface Behavior, pressure-overclosure=LINEAR
5000., 
*Cohesive Behavior, REPEATED CONTACTS
*Surface Interaction, name=NormalTangent
1.,
*Friction, slip tolerance=0.005, taumax=5.
 0.5,
*Surface Behavior, pressure-overclosure=HARD
** 
** INTERACTIONS
** 
** Interaction: Cohesive
*Contact Pair, interaction=Cohesive, small sliding, type=SURFACE TO SURFACE
SOIL-1.BASE_SOIL, m_FND_perim
** ----------------------------------------------------------------
** 
** STEP: apply force
** 
*Step, name="apply force", nlgeom=NO, inc=1000000
Force
*Dynamic
0.01,10.,5e-09
** 
** BOUNDARY CONDITIONS
** 
** Name: Bottom Type: Displacement/Rotation
*Boundary
SOIL-1.BOTTOM_LAYER, 1, 1
SOIL-1.BOTTOM_LAYER, 2, 2
SOIL-1.BOTTOM_LAYER, 6, 6
** 
** LOADS
** 
** Name: Load-2   Type: Concentrated force
*Cload, amplitude=Ramp
MASS-1.MASS, 1, 100.
MASS-1.MASS, 2, 0.
** 
** OUTPUT REQUESTS
** 
*Restart, write, frequency=0
** 
** FIELD OUTPUT: F-Output-1
** 
*Output, field
*Node Output
CF, RF, U, UR, UT
*Element Output, directions=YES
E, EE, PEEQ, PEEQMAX, PEMAG, S
*Contact Output
CDISP, CDSTRESS, CSTRESS
** 
** HISTORY OUTPUT: H-Output-1
** 
*Output, history
*Element Output
IRF1, IRF2, IRF3, IRM1, IRM2, IRM3
*Contact Output
CAREA, CDISP, CFS1, CFS2, CFS3, CFSM, CSTRESS
*End Step
