**    *********************************************************************
**    *********************************************************************
**    Dynamic analysis of a soil column                       **
**     Editor: RF Toma                                         **
**     20/11/2011                                                        **
**    *********************************************************************
**    *********************************************************************
*Heading
** Job name: FF_028g Model name: FreeField_Low
** Generated by: Abaqus/CAE 6.14-1
*Preprint, echo=NO, model=NO, history=NO, contact=NO
**
** PARTS
**
*Part, name=PART-1
*Node
      1,           0.,           0.
      2,           0.,           1.
      3,           0.,           2.
      4,           0.,           3.
      5,           0.,           4.
      6,           0.,           5.
      7,           0.,           6.
      8,           0.,           7.
      9,           0.,           8.
     10,           0.,           9.
     11,           0.,          10.
     12,           0.,          11.
     13,           0.,          12.
     14,           0.,          13.
     15,           0.,          14.
     16,           0.,          15.
     17,           0.,          16.
     18,           0.,          17.
     19,           0.,          18.
     20,           0.,          19.
** ... 102 like lines cut
*Element, type=CPE4
 1,   1, 101, 133, 132
 2,   2, 102, 135, 134
 3,   3, 103, 137, 136
 4,   4, 104, 139, 138
 5,   5, 105, 141, 140
 6,   6, 106, 143, 142
 7,   7, 107, 145, 144
 8,   8, 108, 147, 146
 9,   9, 109, 149, 148
10,  10, 110, 151, 150
11,  11, 111, 153, 152
12,  12, 112, 155, 154
13,  13, 113, 157, 156
14,  14, 114, 159, 158
15,  15, 115, 161, 160
16,  16, 116, 163, 162
17,  17, 117, 165, 164
18,  18, 118, 167, 166
19,  19, 119, 169, 168
20,  20, 120, 171, 170
** ... 40 like lines cut
*Elset, elset=SOIL, generate
  1,  60,   1
** Section: Section-1-SOIL
*Solid Section, elset=SOIL, material=SOIL
,
*End Part
**  
**
** ASSEMBLY
**
*Assembly, name=Assembly
**  
*Instance, name=PART-1-1, part=PART-1
*End Instance
**  
*MPC
PIN, PART-1-1.190, PART-1-1.191
PIN, PART-1-1.188, PART-1-1.189
PIN, PART-1-1.186, PART-1-1.187
PIN, PART-1-1.184, PART-1-1.185
PIN, PART-1-1.182, PART-1-1.183
PIN, PART-1-1.180, PART-1-1.181
PIN, PART-1-1.178, PART-1-1.179
PIN, PART-1-1.176, PART-1-1.177
PIN, PART-1-1.174, PART-1-1.175
PIN, PART-1-1.172, PART-1-1.173
PIN, PART-1-1.170, PART-1-1.171
PIN, PART-1-1.168, PART-1-1.169
PIN, PART-1-1.166, PART-1-1.167
PIN, PART-1-1.164, PART-1-1.165
PIN, PART-1-1.162, PART-1-1.163
PIN, PART-1-1.160, PART-1-1.161
PIN, PART-1-1.158, PART-1-1.159
PIN, PART-1-1.156, PART-1-1.157
PIN, PART-1-1.154, PART-1-1.155
PIN, PART-1-1.152, PART-1-1.153
** ... 40 like lines cut
*Nset, nset=ALL, instance=PART-1-1
   1,   2,   3,   4,   5,   6,   7,   8,   9,  10,  11,  12,  13,  14,  15,  16
  17,  18,  19,  20,  21,  22,  23,  24,  25,  26,  27,  28,  29,  30,  31, 101
 102, 103, 104, 105, 106, 107, 108, 109, 110, 111, 112, 113, 114, 115, 116, 117
 118, 119, 120, 121, 122, 123, 124, 125, 126, 127, 128, 129, 130, 131, 132, 133
 134, 135, 136, 137, 138, 139, 140, 141, 142, 143, 144, 145, 146, 147, 148, 149
 150, 151, 152, 153, 154, 155, 156, 157, 158, 159, 160, 161, 162, 163, 164, 170
 171, 172, 173, 174, 175, 176, 177, 178, 179, 180, 181, 182, 183, 184, 185
*Nset, nset=BB, instance=PART-1-1
   1, 101
*Nset, nset=LB, instance=PART-1-1
   1,   2,   3,   4,   5,   6,   7,   8,   9,  10,  11,  12,  13,  14,  15,  16
  17,  18,  19,  20,  21,  22,  23,  24,  25,  26,  27,  28,  29,  30,  31, 132
 134, 136, 138, 140, 142, 144, 146, 148, 150, 152, 154, 156, 158, 160, 162, 164
 166, 168, 170, 172, 174, 176, 178, 180, 182, 184, 186, 188, 190
*Nset, nset=RB, instance=PART-1-1
 101, 102, 103, 104, 105, 106, 107, 108, 109, 110, 111, 112, 113, 114, 115, 116
 117, 118, 119, 120, 121, 122, 123, 124, 125, 126, 127, 128, 129, 130, 131, 133
 135, 137, 139, 141, 143, 145, 147, 149, 151, 153, 155, 157, 159, 161, 163, 165
 167, 169, 171, 173, 175, 177, 179, 181, 183, 185, 187, 189, 191
*Nset, nset=TOPBOT, instance=PART-1-1
   1,  31, 101, 131
*End Assembly
*Amplitude, name=EQ, definition=PERIODIC
1,           12.56,              0.,              0.
             0.,              1.
*Amplitude, name=LOWPGA_HALF
             0.,           0.006,           0.005,          0.0044,            0.01,          0.0027,           0.015,         -0.0002
           0.02,         -0.0015,           0.025,         -0.0002,            0.03,          0.0023,           0.035,          0.0054
           0.04,          0.0077,           0.045,          0.0081,            0.05,          0.0068,           0.055,          0.0048
           0.06,          0.0027,           0.065,           0.001,            0.07,          0.0002,           0.075,          0.0004
           0.08,          0.0017,           0.085,          0.0033,            0.09,           0.005,           0.095,          0.0058
            0.1,          0.0064,           0.105,           0.006,            0.11,          0.0044,           0.115,          0.0031
           0.12,          0.0015,           0.125,          0.0014,            0.13,          0.0031,           0.135,          0.0052
           0.14,          0.0066,           0.145,          0.0066,            0.15,          0.0058,           0.155,          0.0039
           0.16,          0.0008,           0.165,         -0.0002,            0.17,          0.0021,           0.175,          0.0042
           0.18,          0.0066,           0.185,          0.0083,            0.19,          0.0068,           0.195,          0.0027
            0.2,         -0.0037,           0.205,         -0.0093,            0.21,           -0.01,           0.215,         -0.0029
           0.22,          0.0126,           0.225,          0.0307,            0.23,          0.0419,           0.235,          0.0411
           0.24,          0.0276,           0.245,          0.0008,            0.25,         -0.0303,           0.255,         -0.0529
           0.26,         -0.0572,           0.265,         -0.0394,            0.27,           -0.01,           0.275,           0.018
           0.28,          0.0402,           0.285,          0.0514,            0.29,          0.0475,           0.295,           0.033
            0.3,          0.0154,           0.305,         -0.0046,            0.31,         -0.0193,           0.315,         -0.0263
           0.32,         -0.0249,           0.325,         -0.0116,            0.33,          0.0037,           0.335,          0.0164
           0.34,          0.0263,           0.345,          0.0265,            0.35,          0.0178,           0.355,          0.0081
           0.36,         -0.0019,           0.365,         -0.0127,            0.37,         -0.0205,           0.375,         -0.0209
           0.38,          -0.011,           0.385,          0.0066,            0.39,          0.0228,           0.395,          0.0263
** ... 481 like lines cut
*Amplitude, name=REAL_SIGNAL
             0.,          0.0062,           0.005,          0.0046,            0.01,          0.0028,           0.015,         -0.0002
           0.02,         -0.0016,           0.025,         -0.0002,            0.03,          0.0024,           0.035,          0.0056
           0.04,           0.008,           0.045,          0.0084,            0.05,           0.007,           0.055,           0.005
           0.06,          0.0028,           0.065,           0.001,            0.07,          0.0002,           0.075,          0.0004
           0.08,          0.0018,           0.085,          0.0034,            0.09,          0.0052,           0.095,           0.006
            0.1,          0.0066,           0.105,          0.0062,            0.11,          0.0046,           0.115,          0.0032
           0.12,          0.0016,           0.125,          0.0014,            0.13,          0.0032,           0.135,          0.0054
           0.14,          0.0068,           0.145,          0.0068,            0.15,           0.006,           0.155,           0.004
           0.16,          0.0008,           0.165,         -0.0002,            0.17,          0.0022,           0.175,          0.0044
           0.18,          0.0068,           0.185,          0.0086,            0.19,           0.007,           0.195,          0.0028
            0.2,         -0.0038,           0.205,         -0.0096,            0.21,         -0.0104,           0.215,          -0.003
           0.22,           0.013,           0.225,     0.031800002,            0.23,     0.043400001,           0.235,     0.042599998
           0.24,          0.0286,           0.245,          0.0008,            0.25,    -0.031399999,           0.255,    -0.054800205
           0.26,    -0.059199795,           0.265,    -0.040800001,            0.27,         -0.0104,           0.275,          0.0186
           0.28,          0.0416,           0.285,     0.053199798,            0.29,     0.049199998,           0.295,     0.034200002
            0.3,     0.016000001,           0.305,         -0.0048,            0.31,           -0.02,           0.315,         -0.0272
           0.32,    -0.025800001,           0.325,          -0.012,            0.33,          0.0038,           0.335,     0.017000001
           0.34,          0.0272,           0.345,          0.0274,            0.35,          0.0184,           0.355,          0.0084
           0.36,          -0.002,           0.365,         -0.0132,            0.37,    -0.021199999,           0.375,    -0.021600001
           0.38,         -0.0114,           0.385,          0.0068,            0.39,     0.023600001,           0.395,          0.0272
** ... 481 like lines cut
*Baseline Correction
** 
** MATERIALS
** 
**    *********************************************************************
** 
**    COMMENTS FROM *ELASTIC
**    ======================
** 
**    *********************************************************************
**     Elastic modulus, poisson, blank for temperature dependency, field-1 for
**    interpolation, blank fo field-2 for strength
*Material, name=SOIL
*Damping, beta=0.00173
*Density
 1.8,
*Depvar
      2,
*Elastic, dependencies=2
  7080.,   0.48, ,     0.,     0.
  7080.,   0.48, ,  7080.,     0.
 10040.,   0.48, , 10040.,     0.
 13000.,   0.48, , 13000.,     0.
 15960.,   0.48, , 15960.,     0.
 18920.,   0.48, , 18920.,     0.
 21880.,   0.48, , 21880.,     0.
 24840.,   0.48, , 24840.,     0.
 27800.,   0.48, , 27800.,     0.
 30760.,   0.48, , 30760.,     0.
 33720.,   0.48, , 33720.,     0.
 36680.,   0.48, , 36680.,     0.
 39640.,   0.48, , 39640.,     0.
 42600.,   0.48, , 42600.,     0.
 45560.,   0.48, , 45560.,     0.
 48520.,   0.48, , 48520.,     0.
 51480.,   0.48, , 51480.,     0.
 54440.,   0.48, , 54440.,     0.
 57400.,   0.48, , 57400.,     0.
 60360.,   0.48, , 60360.,     0.
** ... 41 like lines cut
*Plastic, dependencies=2, hardening=COMBINED, datatype=PARAMETERS, number backstresses=1
  0.61,  7080.,  1283., ,     0.,     0.
  0.61,  7080.,  1283., ,     0.,   3.54
  0.87, 10040.,  1283., ,     0.,   5.02
  1.13, 13000.,  1283., ,     0.,    6.5
  1.38, 15960.,  1283., ,     0.,   7.98
  1.64, 18920.,  1283., ,     0.,   9.46
  1.89, 21880.,  1283., ,     0.,  10.94
  2.15, 24840.,  1283., ,     0.,  12.42
  2.41, 27800.,  1283., ,     0.,   13.9
  2.66, 30760.,  1283., ,     0.,  15.38
  2.92, 33720.,  1283., ,     0.,  16.86
  3.18, 36680.,  1283., ,     0.,  18.34
  3.43, 39640.,  1283., ,     0.,  19.82
  3.69, 42600.,  1283., ,     0.,   21.3
  3.95, 45560.,  1283., ,     0.,  22.78
   4.2, 48520.,  1283., ,     0.,  24.26
  4.46, 51480.,  1283., ,     0.,  25.74
  4.71, 54440.,  1283., ,     0.,  27.22
  4.97, 57400.,  1283., ,     0.,   28.7
  5.23, 60360.,  1283., ,     0.,  30.18
** ... 41 like lines cut
*User Defined Field
** ----------------------------------------------------------------
** 
** STEP: Geostatic
** 
*Step, name=Geostatic, nlgeom=NO
*Static
0.01, 1., 0.0001, 0.5
** 
** BOUNDARY CONDITIONS
** 
** Name: Disp-BC-1 Type: Displacement/Rotation
*Boundary
BB, 1, 1
** Name: Disp-BC-2 Type: Displacement/Rotation
*Boundary
BB, 2, 2
** 
** LOADS
** 
** Name: GRAVITY-1   Type: Gravity
*Dload
PART-1-1.SOIL, GRAV, 9.81, 0., -1.
** 
** OUTPUT REQUESTS
** 
*Restart, write, frequency=0
** 
** FIELD OUTPUT: F-Output-1
** 
*Output, field
*Node Output
U, 
** 
** FIELD OUTPUT: F-Output-2
** 
*Element Output, elset=PART-1-1.SOIL, directions=YES
S, SDV
** 
** HISTORY OUTPUT: H-Output-1
** 
*Output, history
*Element Output, elset=PART-1-1.SOIL
SDV, 
*End Step
** ----------------------------------------------------------------
** 
** STEP: Dynamic
** 
*Step, name=Dynamic, nlgeom=NO, inc=30000000
*Dynamic,alpha=0.,direct
0.005,10.,
** 
** BOUNDARY CONDITIONS
** 
** Name: Acc-BC-1 Type: Acceleration/Angular acceleration
*Boundary, op=NEW, amplitude=LOWPGA_HALF, type=ACCELERATION
BB, 1, 1, 5.
** Name: Disp-BC-1 Type: Displacement/Rotation
*Boundary, op=NEW
** Name: Disp-BC-2 Type: Displacement/Rotation
*Boundary, op=NEW
** Name: Disp-BC-3 Type: Displacement/Rotation
*Boundary, op=NEW
BB, 2, 2
** 
** OUTPUT REQUESTS
** 
*Restart, write, frequency=0
** 
** FIELD OUTPUT: F-Output-3
** 
*Output, field, frequency=1
*Node Output
A, U, V
** 
** FIELD OUTPUT: F-Output-4
** 
*Element Output, elset=PART-1-1.SOIL, directions=YES
E, S, SDV
** 
** HISTORY OUTPUT: H-Output-2
** 
*Output, history
*Node Output, nset=ALL
A1, U1, U2
** 
** HISTORY OUTPUT: H-Output-3
** 
*Element Output, elset=PART-1-1.SOIL
SDV, 
*End Step
