**  *********************************************************************
**  *********************************************************************
**   Dynamic analysis of a soil column                       **
**   Editor: Raluca Toma                                         **
**   20/02/2016                                                        **
**  *********************************************************************
**  *********************************************************************
*Heading
** Job name: FF_LowPGA Model name: RealSignal - Copy
** Generated by: Abaqus/CAE 6.14-1
*Preprint, echo=NO, model=NO, history=NO, contact=NO
**
** PARTS
**
*Part, name=PART-1
*Node
      1,           0.,           0.
      2,           0.,           1.
      3,           0.,           2.
      4,           0.,           3.
      5,           0.,           4.
      6,           0.,           5.
      7,           0.,           6.
      8,           0.,           7.
      9,           0.,           8.
     10,           0.,           9.
     11,           0.,          10.
     12,           0.,          11.
     13,           0.,          12.
     14,           0.,          13.
     15,           0.,          14.
     16,           0.,          15.
     17,           0.,          16.
     18,           0.,          17.
     19,           0.,          18.
     20,           0.,          19.
** ... 42 like lines cut
*Element, type=CPE4
 1,   1, 101, 102,   2
 2,   2, 102, 103,   3
 3,   3, 103, 104,   4
 4,   4, 104, 105,   5
 5,   5, 105, 106,   6
 6,   6, 106, 107,   7
 7,   7, 107, 108,   8
 8,   8, 108, 109,   9
 9,   9, 109, 110,  10
10,  10, 110, 111,  11
11,  11, 111, 112,  12
12,  12, 112, 113,  13
13,  13, 113, 114,  14
14,  14, 114, 115,  15
15,  15, 115, 116,  16
16,  16, 116, 117,  17
17,  17, 117, 118,  18
18,  18, 118, 119,  19
19,  19, 119, 120,  20
20,  20, 120, 121,  21
** ... 10 like lines cut
*Elset, elset=SOIL, generate
  1,  30,   1
** Section: Section-1-SOIL
*Solid Section, elset=SOIL, material=SOIL
,
*End Part
**  
**
** ASSEMBLY
**
*Assembly, name=Assembly
**  
*Instance, name=PART-1-1, part=PART-1
*End Instance
**  
*MPC
PIN, PART-1-1.31, PART-1-1.131
PIN, PART-1-1.30, PART-1-1.130
PIN, PART-1-1.29, PART-1-1.129
PIN, PART-1-1.28, PART-1-1.128
PIN, PART-1-1.27, PART-1-1.127
PIN, PART-1-1.26, PART-1-1.126
PIN, PART-1-1.25, PART-1-1.125
PIN, PART-1-1.24, PART-1-1.124
PIN, PART-1-1.23, PART-1-1.123
PIN, PART-1-1.22, PART-1-1.122
PIN, PART-1-1.21, PART-1-1.121
PIN, PART-1-1.20, PART-1-1.120
PIN, PART-1-1.19, PART-1-1.119
PIN, PART-1-1.18, PART-1-1.118
PIN, PART-1-1.17, PART-1-1.117
PIN, PART-1-1.16, PART-1-1.116
PIN, PART-1-1.15, PART-1-1.115
PIN, PART-1-1.14, PART-1-1.114
PIN, PART-1-1.13, PART-1-1.113
PIN, PART-1-1.12, PART-1-1.112
** ... 10 like lines cut
*Nset, nset=ALL, instance=PART-1-1
   1,   2,   3,   4,   5,   6,   7,   8,   9,  10,  11,  12,  13,  14,  15,  16
  17,  18,  19,  20,  21, 101, 102, 103, 104, 105, 106, 107, 108, 109, 110, 111
 112, 113, 114, 115, 116, 117, 118, 119, 120, 121, 122, 123, 124, 125, 126, 127
*Nset, nset=BB, instance=PART-1-1
   1, 101
*Nset, nset=LB, instance=PART-1-1, generate
  1,  31,   1
*Nset, nset=RB, instance=PART-1-1, generate
 101,  131,    1
*Nset, nset=TOPANDBOT, instance=PART-1-1
   1,  31, 101, 131
*End Assembly
*Amplitude, name=EQ, definition=PERIODIC
1,            6.28,              0.,              0.
             0.,              1.
*Amplitude, name=LowPGA
             0.,          0.0072,           0.005,          0.0062,            0.01,          0.0046,           0.015,          0.0028
           0.02,         -0.0002,           0.025,         -0.0016,            0.03,         -0.0002,           0.035,          0.0024
           0.04,          0.0056,           0.045,           0.008,            0.05,          0.0084,           0.055,           0.007
           0.06,           0.005,           0.065,          0.0028,            0.07,           0.001,           0.075,          0.0002
           0.08,          0.0004,           0.085,          0.0018,            0.09,          0.0034,           0.095,          0.0052
            0.1,           0.006,           0.105,          0.0066,            0.11,          0.0062,           0.115,          0.0046
           0.12,          0.0032,           0.125,          0.0016,            0.13,          0.0014,           0.135,          0.0032
           0.14,          0.0054,           0.145,          0.0068,            0.15,          0.0068,           0.155,           0.006
           0.16,           0.004,           0.165,          0.0008,            0.17,         -0.0002,           0.175,          0.0022
           0.18,          0.0044,           0.185,          0.0068,            0.19,          0.0086,           0.195,           0.007
            0.2,          0.0028,           0.205,         -0.0038,            0.21,         -0.0096,           0.215,         -0.0104
           0.22,          -0.003,           0.225,           0.013,            0.23,          0.0318,           0.235,          0.0434
           0.24,          0.0426,           0.245,          0.0286,            0.25,          0.0008,           0.255,         -0.0314
           0.26,         -0.0548,           0.265,         -0.0592,            0.27,         -0.0408,           0.275,         -0.0104
           0.28,          0.0186,           0.285,          0.0416,            0.29,          0.0532,           0.295,          0.0492
            0.3,          0.0342,           0.305,           0.016,            0.31,         -0.0048,           0.315,           -0.02
           0.32,         -0.0272,           0.325,         -0.0258,            0.33,          -0.012,           0.335,          0.0038
           0.34,           0.017,           0.345,          0.0272,            0.35,          0.0274,           0.355,          0.0184
           0.36,          0.0084,           0.365,          -0.002,            0.37,         -0.0132,           0.375,         -0.0212
           0.38,         -0.0216,           0.385,         -0.0114,            0.39,          0.0068,           0.395,          0.0236
** ... 481 like lines cut
*Amplitude, name=REALSIGNAL
             0.,        0.121644,           0.005,        0.090252,            0.01,        0.054936,           0.015,       -0.003924
           0.02,       -0.031392,           0.025,       -0.003924,            0.03,        0.047088,           0.035,        0.109872
           0.04,         0.15696,           0.045,        0.164808,            0.05,         0.13734,           0.055,          0.0981
           0.06,        0.054936,           0.065,         0.01962,            0.07,        0.003924,           0.075,        0.007848
           0.08,        0.035316,           0.085,        0.066708,            0.09,        0.102024,           0.095,         0.11772
            0.1,        0.129492,           0.105,        0.121644,            0.11,        0.090252,           0.115,        0.062784
           0.12,        0.031392,           0.125,        0.027468,            0.13,        0.062784,           0.135,        0.105948
           0.14,        0.133416,           0.145,        0.133416,            0.15,         0.11772,           0.155,         0.07848
           0.16,        0.015696,           0.165,       -0.003924,            0.17,        0.043164,           0.175,        0.086328
           0.18,        0.133416,           0.185,        0.168732,            0.19,         0.13734,           0.195,        0.054936
            0.2,       -0.074556,           0.205,       -0.188352,            0.21,       -0.204048,           0.215,        -0.05886
           0.22,         0.25506,           0.225,        0.623916,            0.23,        0.851508,           0.235,        0.835812
           0.24,        0.561132,           0.245,        0.015696,            0.25,       -0.616068,           0.255,       -1.075176
           0.26,       -1.161504,           0.265,       -0.800496,            0.27,       -0.204048,           0.275,        0.364932
           0.28,        0.816192,           0.285,        1.043784,            0.29,        0.965304,           0.295,        0.671004
            0.3,         0.31392,           0.305,       -0.094176,            0.31,         -0.3924,           0.315,       -0.533664
           0.32,       -0.506196,           0.325,        -0.23544,            0.33,        0.074556,           0.335,         0.33354
           0.34,        0.533664,           0.345,        0.537588,            0.35,        0.361008,           0.355,        0.164808
           0.36,        -0.03924,           0.365,       -0.258984,            0.37,       -0.415944,           0.375,       -0.423792
           0.38,       -0.223668,           0.385,        0.133416,            0.39,        0.463032,           0.395,        0.533664
** ... 481 like lines cut
*Amplitude, name="Ricker pulse"
             0.,              0.,            0.04,              0.,            0.08,              0.,            0.12,              0.
           0.16,              0.,             0.2,              0.,            0.24,              0.,            0.28,          -1e-06
           0.32,          -4e-06,            0.36,        -2.7e-05,             0.4,       -0.000144,            0.44,       -0.000655
           0.48,       -0.002548,            0.52,       -0.008402,            0.56,       -0.023161,             0.6,       -0.052256
           0.64,       -0.092589,            0.68,       -0.116188,            0.72,       -0.063038,            0.76,        0.123621
            0.8,        0.410584,            0.84,         0.61175,            0.88,        0.477486,            0.92,       -0.057843
           0.96,       -0.706585,              1.,       -0.999998,            1.04,       -0.706585,            1.08,       -0.057843
           1.12,        0.477486,            1.16,         0.61175,             1.2,        0.410584,            1.24,        0.123621
           1.28,       -0.063038,            1.32,       -0.116188,            1.36,       -0.092589,             1.4,       -0.052256
           1.44,       -0.023161,            1.48,       -0.008402,            1.52,       -0.002548,            1.56,       -0.000655
            1.6,       -0.000144,            1.64,        -2.7e-05,            1.68,          -4e-06,            1.72,          -1e-06
           1.76,              0.,             1.8,              0.,            1.84,              0.,            1.88,              0.
           1.92,              0.,            1.96,              0.,              2.,              0.
** 
** MATERIALS
** 
**  *********************************************************************
** 
**  COMMENTS FROM *ELASTIC
**  ======================
** 
**  *********************************************************************
**   Elastic modulus, poisson, blank for temperature dependency, field-1 for
**  interpolation, blank fo field-2 for strength
*Material, name=SOIL
*Damping, beta=0.002
*Density
 1.8,
*Depvar
      2,
*Elastic, dependencies=2
 14364.,   0.48, , 14364.,     0.
 19692.,   0.48, , 19692.,     0.
 25020.,   0.48, , 25020.,     0.
 30348.,   0.48, , 30348.,     0.
 35676.,   0.48, , 35676.,     0.
 41004.,   0.48, , 41004.,     0.
 46332.,   0.48, , 46332.,     0.
 51660.,   0.48, , 51660.,     0.
 56988.,   0.48, , 56988.,     0.
 62316.,   0.48, , 62316.,     0.
 67644.,   0.48, , 67644.,     0.
 72972.,   0.48, , 72972.,     0.
 78300.,   0.48, , 78300.,     0.
 83628.,   0.48, , 83628.,     0.
 88956.,   0.48, , 88956.,     0.
 94284.,   0.48, , 94284.,     0.
 99612.,   0.48, , 99612.,     0.
104940.,   0.48, ,104940.,     0.
110268.,   0.48, ,110268.,     0.
115596.,   0.48, ,115596.,     0.
120924.,   0.48, ,120924.,     0.
*Plastic, dependencies=2, hardening=COMBINED, datatype=PARAMETERS, number backstresses=1
  1.38, 14364., 1154.7, ,     0.,   7.98
  1.89, 19692., 1154.7, ,     0.,  10.94
  2.41, 25020., 1154.7, ,     0.,   13.9
  2.92, 30348., 1154.7, ,     0.,  16.86
  3.43, 35676., 1154.7, ,     0.,  19.82
  3.95, 41004., 1154.7, ,     0.,  22.78
  4.46, 46332., 1154.7, ,     0.,  25.74
  4.97, 51660., 1154.7, ,     0.,   28.7
  5.48, 56988., 1154.7, ,     0.,  31.66
    6., 62316., 1154.7, ,     0.,  34.62
  6.51, 67644., 1154.7, ,     0.,  37.58
  7.02, 72972., 1154.7, ,     0.,  40.54
  7.53, 78300., 1154.7, ,     0.,   43.5
  8.05, 83628., 1154.7, ,     0.,  46.46
  8.56, 88956., 1154.7, ,     0.,  49.42
  9.07, 94284., 1154.7, ,     0.,  52.38
  9.59, 99612., 1154.7, ,     0.,  55.34
  10.1,104940., 1154.7, ,     0.,   58.3
 10.61,110268., 1154.7, ,     0.,  61.26
 11.12,115596., 1154.7, ,     0.,  64.22
 11.64,120924., 1154.7, ,     0.,  67.18
*User Defined Field
** ----------------------------------------------------------------
** 
** STEP: Geostatic
** 
*Step, name=Geostatic, nlgeom=NO
*Static
0.01, 1., 0.0001, 0.5
** 
** BOUNDARY CONDITIONS
** 
** Name: Disp-BC-1 Type: Displacement/Rotation
*Boundary
BB, 1, 1
** Name: Disp-BC-2 Type: Displacement/Rotation
*Boundary
BB, 2, 2
** 
** LOADS
** 
** Name: GRAVITY-1   Type: Gravity
*Dload
PART-1-1.SOIL, GRAV, 9.81, 0., -1.
** 
** OUTPUT REQUESTS
** 
*Restart, write, frequency=0
** 
** FIELD OUTPUT: F-Output-1
** 
*Output, field
*Node Output
U, 
** 
** FIELD OUTPUT: F-Output-2
** 
*Element Output, elset=PART-1-1.SOIL, directions=YES
S, SDV
** 
** HISTORY OUTPUT: H-Output-1
** 
*Output, history
*Element Output, elset=PART-1-1.SOIL
SDV, 
*End Step
** ----------------------------------------------------------------
** 
** STEP: Dynamic
** 
*Step, name=Dynamic, nlgeom=NO, inc=30000000
*Dynamic,alpha=0.,direct
0.005,10.,
** 
** BOUNDARY CONDITIONS
** 
** Name: Acc-BC-1 Type: Acceleration/Angular acceleration
*Boundary, op=NEW, amplitude=LowPGA, type=ACCELERATION
BB, 1, 1, 1.
** Name: Disp-BC-1 Type: Displacement/Rotation
*Boundary, op=NEW
** Name: Disp-BC-2 Type: Displacement/Rotation
*Boundary, op=NEW
** Name: Disp-BC-3 Type: Displacement/Rotation
*Boundary, op=NEW
BB, 2, 2
** 
** OUTPUT REQUESTS
** 
*Restart, write, frequency=0
** 
** FIELD OUTPUT: F-Output-3
** 
*Output, field, frequency=1
*Node Output
A, U, V
** 
** FIELD OUTPUT: F-Output-4
** 
*Element Output, elset=PART-1-1.SOIL, directions=YES
E, S, SDV
** 
** HISTORY OUTPUT: H-Output-2
** 
*Output, history
*Node Output, nset=ALL
A1, U1, U2
** 
** HISTORY OUTPUT: H-Output-3
** 
*Element Output, elset=PART-1-1.SOIL
SDV, 
*End Step
