**   *********************************************************************
**   *********************************************************************
**   Dynamic analysis of a soil column                       **
**    Editor: RF Toma                                         **
**    20/11/2011                                                        **
**   *********************************************************************
**   *********************************************************************
*Heading
** Job name: FreeField_Low Model name: HIGH_MAIN
** Generated by: Abaqus/CAE 6.14-1
*Preprint, echo=NO, model=NO, history=NO, contact=NO
**
** PARTS
**
*Part, name=PART-1
*Node
      1,           0.,           0.
      2,           0.,           1.
      3,           0.,           2.
      4,           0.,           3.
      5,           0.,           4.
      6,           0.,           5.
      7,           0.,           6.
      8,           0.,           7.
      9,           0.,           8.
     10,           0.,           9.
     11,           0.,          10.
     12,           0.,          11.
     13,           0.,          12.
     14,           0.,          13.
     15,           0.,          14.
     16,           0.,          15.
     17,           0.,          16.
     18,           0.,          17.
     19,           0.,          18.
     20,           0.,          19.
** ... 102 like lines cut
*Element, type=CPE4
 1,   1, 101, 133, 132
 2,   2, 102, 135, 134
 3,   3, 103, 137, 136
 4,   4, 104, 139, 138
 5,   5, 105, 141, 140
 6,   6, 106, 143, 142
 7,   7, 107, 145, 144
 8,   8, 108, 147, 146
 9,   9, 109, 149, 148
10,  10, 110, 151, 150
11,  11, 111, 153, 152
12,  12, 112, 155, 154
13,  13, 113, 157, 156
14,  14, 114, 159, 158
15,  15, 115, 161, 160
16,  16, 116, 163, 162
17,  17, 117, 165, 164
18,  18, 118, 167, 166
19,  19, 119, 169, 168
20,  20, 120, 171, 170
** ... 40 like lines cut
*Elset, elset=SOIL, generate
  1,  60,   1
** Section: Section-1-SOIL
*Solid Section, elset=SOIL, material=SOIL
,
*End Part
**  
**
** ASSEMBLY
**
*Assembly, name=Assembly
**  
*Instance, name=PART-1-1, part=PART-1
*End Instance
**  
*MPC
PIN, PART-1-1.2, PART-1-1.102
PIN, PART-1-1.3, PART-1-1.103
PIN, PART-1-1.4, PART-1-1.104
PIN, PART-1-1.5, PART-1-1.105
PIN, PART-1-1.6, PART-1-1.106
PIN, PART-1-1.7, PART-1-1.107
PIN, PART-1-1.8, PART-1-1.108
PIN, PART-1-1.9, PART-1-1.109
PIN, PART-1-1.10, PART-1-1.110
PIN, PART-1-1.11, PART-1-1.111
PIN, PART-1-1.12, PART-1-1.112
PIN, PART-1-1.13, PART-1-1.113
PIN, PART-1-1.14, PART-1-1.114
PIN, PART-1-1.15, PART-1-1.115
PIN, PART-1-1.16, PART-1-1.116
PIN, PART-1-1.17, PART-1-1.117
PIN, PART-1-1.18, PART-1-1.118
PIN, PART-1-1.19, PART-1-1.119
PIN, PART-1-1.20, PART-1-1.120
PIN, PART-1-1.21, PART-1-1.121
** ... 40 like lines cut
*Nset, nset=ALL, instance=PART-1-1
   1,   2,   3,   4,   5,   6,   7,   8,   9,  10,  11,  12,  13,  14,  15,  16
  17,  18,  19,  20,  21,  22,  23,  24,  25,  26,  27,  28,  29,  30,  31, 101
 102, 103, 104, 105, 106, 107, 108, 109, 110, 111, 112, 113, 114, 115, 116, 117
 118, 119, 120, 121, 122, 123, 124, 125, 126, 127, 128, 129, 130, 131, 132, 133
 134, 135, 136, 137, 138, 139, 140, 141, 142, 143, 144, 145, 146, 147, 148, 149
 150, 151, 152, 153, 154, 155, 156, 157, 158, 159, 160, 161, 162, 163, 164, 170
 171, 172, 173, 174, 175, 176, 177, 178, 179, 180, 181, 182, 183, 184, 185
*Nset, nset=BB, instance=PART-1-1
   1, 101
*Nset, nset=LB, instance=PART-1-1, generate
  1,  31,   1
*Nset, nset=RB, instance=PART-1-1, generate
 101,  131,    1
*Nset, nset=TOPBOT, instance=PART-1-1
   1,  31, 101, 131
*End Assembly
*Amplitude, name=EQ, definition=PERIODIC
1,           12.56,              0.,              0.
             0.,              1.
*Amplitude, name=LOWPGA_HALF
             0.,     0.001068966,           0.005,     0.000793103,            0.01,     0.000482759,           0.015,    -3.44828e-05
           0.02,    -0.000275862,           0.025,    -3.44828e-05,            0.03,     0.000413793,           0.035,     0.000965517
           0.04,     0.001379311,           0.045,     0.001448276,            0.05,     0.001206897,           0.055,     0.000862069
           0.06,     0.000482759,           0.065,     0.000172414,            0.07,     3.44828e-05,           0.075,     6.89655e-05
           0.08,     0.000310345,           0.085,     0.000586207,            0.09,     0.000896552,           0.095,     0.001034483
            0.1,     0.001137931,           0.105,     0.001068966,            0.11,     0.000793103,           0.115,     0.000551724
           0.12,     0.000275862,           0.125,     0.000241379,            0.13,     0.000551724,           0.135,     0.000931035
           0.14,     0.001172414,           0.145,     0.001172414,            0.15,     0.001034483,           0.155,     0.000689655
           0.16,     0.000137931,           0.165,    -3.44828e-05,            0.17,      0.00037931,           0.175,     0.000758621
           0.18,     0.001172414,           0.185,     0.001482759,            0.19,     0.001206897,           0.195,     0.000482759
            0.2,    -0.000655172,           0.205,    -0.001655173,            0.21,    -0.001793104,           0.215,    -0.000517241
           0.22,     0.002241379,           0.225,     0.005482759,            0.23,     0.007482759,           0.235,     0.007344828
           0.24,     0.004931035,           0.245,     0.000137931,            0.25,    -0.005413793,           0.255,    -0.009448311
           0.26,    -0.010206861,           0.265,    -0.007034483,            0.27,    -0.001793104,           0.275,     0.003206897
           0.28,     0.007172414,           0.285,     0.009172379,            0.29,     0.008482759,           0.295,     0.005896552
            0.3,     0.002758621,           0.305,    -0.000827586,            0.31,    -0.003448276,           0.315,    -0.004689655
           0.32,    -0.004448276,           0.325,    -0.002068966,            0.33,     0.000655172,           0.335,     0.002931035
           0.34,     0.004689655,           0.345,     0.004724138,            0.35,     0.003172414,           0.355,     0.001448276
           0.36,    -0.000344828,           0.365,    -0.002275862,            0.37,    -0.003655172,           0.375,    -0.003724138
           0.38,    -0.001965517,           0.385,     0.001172414,            0.39,     0.004068966,           0.395,     0.004689655
** ... 481 like lines cut
*Amplitude, name=REAL_SIGNAL
             0.,          0.0062,           0.005,          0.0046,            0.01,          0.0028,           0.015,         -0.0002
           0.02,         -0.0016,           0.025,         -0.0002,            0.03,          0.0024,           0.035,          0.0056
           0.04,           0.008,           0.045,          0.0084,            0.05,           0.007,           0.055,           0.005
           0.06,          0.0028,           0.065,           0.001,            0.07,          0.0002,           0.075,          0.0004
           0.08,          0.0018,           0.085,          0.0034,            0.09,          0.0052,           0.095,           0.006
            0.1,          0.0066,           0.105,          0.0062,            0.11,          0.0046,           0.115,          0.0032
           0.12,          0.0016,           0.125,          0.0014,            0.13,          0.0032,           0.135,          0.0054
           0.14,          0.0068,           0.145,          0.0068,            0.15,           0.006,           0.155,           0.004
           0.16,          0.0008,           0.165,         -0.0002,            0.17,          0.0022,           0.175,          0.0044
           0.18,          0.0068,           0.185,          0.0086,            0.19,           0.007,           0.195,          0.0028
            0.2,         -0.0038,           0.205,         -0.0096,            0.21,         -0.0104,           0.215,          -0.003
           0.22,           0.013,           0.225,     0.031800002,            0.23,     0.043400001,           0.235,     0.042599998
           0.24,          0.0286,           0.245,          0.0008,            0.25,    -0.031399999,           0.255,    -0.054800205
           0.26,    -0.059199795,           0.265,    -0.040800001,            0.27,         -0.0104,           0.275,          0.0186
           0.28,          0.0416,           0.285,     0.053199798,            0.29,     0.049199998,           0.295,     0.034200002
            0.3,     0.016000001,           0.305,         -0.0048,            0.31,           -0.02,           0.315,         -0.0272
           0.32,    -0.025800001,           0.325,          -0.012,            0.33,          0.0038,           0.335,     0.017000001
           0.34,          0.0272,           0.345,          0.0274,            0.35,          0.0184,           0.355,          0.0084
           0.36,          -0.002,           0.365,         -0.0132,            0.37,    -0.021199999,           0.375,    -0.021600001
           0.38,         -0.0114,           0.385,          0.0068,            0.39,     0.023600001,           0.395,          0.0272
** ... 481 like lines cut
*Baseline Correction
** 
** MATERIALS
** 
**   *********************************************************************
** 
**   COMMENTS FROM *ELASTIC
**   ======================
** 
**   *********************************************************************
**    Elastic modulus, poisson, blank for temperature dependency, field-1 for
**   interpolation, blank fo field-2 for strength
*Material, name=SOIL
*Damping, beta=0.00173
*Density
 1.8,
*Depvar
      2,
*Elastic, dependencies=2
  7080.,   0.48, ,     0.,     0.
  7080.,   0.48, ,  7080.,     0.
 10040.,   0.48, , 10040.,     0.
 13000.,   0.48, , 13000.,     0.
 15960.,   0.48, , 15960.,     0.
 18920.,   0.48, , 18920.,     0.
 21880.,   0.48, , 21880.,     0.
 24840.,   0.48, , 24840.,     0.
 27800.,   0.48, , 27800.,     0.
 30760.,   0.48, , 30760.,     0.
 33720.,   0.48, , 33720.,     0.
 36680.,   0.48, , 36680.,     0.
 39640.,   0.48, , 39640.,     0.
 42600.,   0.48, , 42600.,     0.
 45560.,   0.48, , 45560.,     0.
 48520.,   0.48, , 48520.,     0.
 51480.,   0.48, , 51480.,     0.
 54440.,   0.48, , 54440.,     0.
 57400.,   0.48, , 57400.,     0.
 60360.,   0.48, , 60360.,     0.
** ... 41 like lines cut
*Plastic, dependencies=2, hardening=COMBINED, datatype=PARAMETERS, number backstresses=1
  0.61,  7080.,  1283., ,     0.,     0.
  0.61,  7080.,  1283., ,     0.,   3.54
  0.87, 10040.,  1283., ,     0.,   5.02
  1.13, 13000.,  1283., ,     0.,    6.5
  1.38, 15960.,  1283., ,     0.,   7.98
  1.64, 18920.,  1283., ,     0.,   9.46
  1.89, 21880.,  1283., ,     0.,  10.94
  2.15, 24840.,  1283., ,     0.,  12.42
  2.41, 27800.,  1283., ,     0.,   13.9
  2.66, 30760.,  1283., ,     0.,  15.38
  2.92, 33720.,  1283., ,     0.,  16.86
  3.18, 36680.,  1283., ,     0.,  18.34
  3.43, 39640.,  1283., ,     0.,  19.82
  3.69, 42600.,  1283., ,     0.,   21.3
  3.95, 45560.,  1283., ,     0.,  22.78
   4.2, 48520.,  1283., ,     0.,  24.26
  4.46, 51480.,  1283., ,     0.,  25.74
  4.71, 54440.,  1283., ,     0.,  27.22
  4.97, 57400.,  1283., ,     0.,   28.7
  5.23, 60360.,  1283., ,     0.,  30.18
** ... 41 like lines cut
*User Defined Field
** ----------------------------------------------------------------
** 
** STEP: Geostatic
** 
*Step, name=Geostatic, nlgeom=NO
*Static
0.01, 1., 0.0001, 0.5
** 
** BOUNDARY CONDITIONS
** 
** Name: Disp-BC-1 Type: Displacement/Rotation
*Boundary
BB, 1, 1
** Name: Disp-BC-2 Type: Displacement/Rotation
*Boundary
BB, 2, 2
** 
** LOADS
** 
** Name: GRAVITY-1   Type: Gravity
*Dload
PART-1-1.SOIL, GRAV, 9.81, 0., -1.
** 
** OUTPUT REQUESTS
** 
*Restart, write, frequency=0
** 
** FIELD OUTPUT: F-Output-1
** 
*Output, field
*Node Output
U, 
** 
** FIELD OUTPUT: F-Output-2
** 
*Element Output, elset=PART-1-1.SOIL, directions=YES
S, SDV
** 
** HISTORY OUTPUT: H-Output-1
** 
*Output, history
*Element Output, elset=PART-1-1.SOIL
SDV, 
*End Step
** ----------------------------------------------------------------
** 
** STEP: Dynamic
** 
*Step, name=Dynamic, nlgeom=NO, inc=30000000
*Dynamic,alpha=0.,direct
0.005,10.,
** 
** BOUNDARY CONDITIONS
** 
** Name: Acc-BC-1 Type: Acceleration/Angular acceleration
*Boundary, op=NEW, amplitude=LOWPGA_HALF, type=ACCELERATION
BB, 1, 1, 9.81
** Name: Disp-BC-1 Type: Displacement/Rotation
*Boundary, op=NEW
** Name: Disp-BC-2 Type: Displacement/Rotation
*Boundary, op=NEW
** Name: Disp-BC-3 Type: Displacement/Rotation
*Boundary, op=NEW
BB, 2, 2
** 
** OUTPUT REQUESTS
** 
*Restart, write, frequency=0
** 
** FIELD OUTPUT: F-Output-3
** 
*Output, field, frequency=1
*Node Output
A, U
** 
** FIELD OUTPUT: F-Output-4
** 
*Element Output, elset=PART-1-1.SOIL, directions=YES
E, S, SDV
** 
** HISTORY OUTPUT: H-Output-2
** 
*Output, history
*Node Output, nset=ALL
A1, U1, U2
** 
** HISTORY OUTPUT: H-Output-3
** 
*Element Output, elset=PART-1-1.SOIL
SDV, 
*End Step
