*Heading
** Job name: Incorp Model name: EmbeddedFND
** Generated by: Abaqus/CAE 6.14-1
*Preprint, echo=NO, model=NO, history=NO, contact=NO
**
** PARTS
**
*Part, name=FND
*Node
      1,          -8.,          -2.
      2,         -8.5,          -2.
      3,          -9.,          -2.
      4,         -9.5,          -2.
      5,         -10.,          -2.
      6,        -10.5,          -2.
      7,         -11.,          -2.
      8,          -8.,         -2.5
      9,         -8.5,         -2.5
     10,          -9.,         -2.5
     11,         -9.5,         -2.5
     12,         -10.,         -2.5
     13,        -10.5,         -2.5
     14,         -11.,         -2.5
     15,          -8.,          -3.
     16,         -8.5,          -3.
     17,          -9.,          -3.
     18,         -9.5,          -3.
     19,         -10.,          -3.
     20,        -10.5,          -3.
** ... 46 like lines cut
*Element, type=CPE4R
 1,  1, 22, 48, 47
 2,  2, 24, 50, 49
 3,  3, 26, 52, 51
 4,  4, 28, 54, 53
 5,  5, 30, 56, 55
 6,  6, 32, 58, 57
 7,  8, 23, 60, 59
 8,  9, 25, 62, 61
 9, 10, 27, 64, 63
10, 11, 29, 66, 65
11, 12, 31, 68, 67
12, 13, 33, 70, 69
13, 22,  2, 49, 48
14, 24,  3, 51, 50
15, 26,  4, 53, 52
16, 28,  5, 55, 54
17, 30,  6, 57, 56
18, 32,  7, 82, 58
19, 23,  9, 61, 60
20, 25, 10, 63, 62
** ... 28 like lines cut
*Nset, nset=FND-REFPT_, internal
 46,
*Nset, nset=CORNERS
 15, 21
*Nset, nset=MD
 11,
*Elset, elset=_BOT_F_S3, internal
  7,  8,  9, 10, 11, 12, 19, 20, 21, 22, 23, 24, 31, 32, 33, 34
 35, 36, 43, 44, 45, 46, 47, 48
*Nset, nset=BOT_NODES
 15, 16, 17, 18, 19, 20, 21, 35, 37, 39, 41, 43, 45
*Nset, nset=WHOLE_FND
  1,  2,  3,  4,  5,  6,  7,  8,  9, 10, 11, 12, 13, 14, 15, 16
 17, 18, 19, 20, 21, 22, 23, 24, 25, 26, 27, 28, 29, 30, 31, 32
 33, 35, 37, 39, 41, 43, 45
*Elset, elset=WHOLE_FND, generate
  1,  48,   1
*Elset, elset=_BOT_F_S3_1, internal
 31, 32, 33, 34, 35, 36, 43, 44, 45, 46, 47, 48
*Surface, type=ELEMENT, name=BOT_F
_BOT_F_S3_1, S3
*Elset, elset=_Fperim_S2, internal
 18, 24, 42, 48
*Elset, elset=_Fperim_S3, internal
 31, 32, 33, 34, 35, 36, 43, 44, 45, 46, 47, 48
*Elset, elset=_Fperim_S4, internal
  1,  7, 25, 31
*Surface, type=ELEMENT, name=Fperim
_Fperim_S2, S2
_Fperim_S3, S3
_Fperim_S4, S4
** Section: Section-1-WHOLE_FND
*Solid Section, elset=WHOLE_FND, material=FOUNDATION
,
*End Part
**  
*Part, name=MASS
*Node
      1,           0.,           1.
*Nset, nset=MASS-REFPT_, internal
 1,
*Nset, nset=MASS
 1,
*Nset, nset=_PickedSet5, internal
 1,
*Element, type=MASS, elset=_PickedSet5_MASS_INERTIA-1__
1, 1
*Mass, elset=_PickedSet5_MASS_INERTIA-1__
2.7e+08, 
*End Part
**  
*Part, name=PIER
*Node
      1,           0.,         -1.5
      2,           0.,         -5.5
      3,           0.,         -3.5
*Element, type=B21
1, 1, 2
*Nset, nset=PIER-REFPT_, internal
 3,
*Nset, nset=PIER
 1, 2
*Elset, elset=PIER
 1,
** Section: Section-2-PIER  Profile: Profile-1
*Beam Section, elset=PIER, material=PIER, poisson = 0.33, temperature=GRADIENTS, section=RECT
1., 0.1
0.,0.,-1.
*End Part
**  
*Part, name=Soil
*Node
      1,   9.69999981,          13.
      2,   9.69999981,          11.
      3,         17.5,          11.
      4,         17.5,          13.
      5,    6.0999999,          13.
      6,    6.0999999,          11.
      7,   9.69999981,          -7.
      8,         17.5,          -7.
      9,           4.,          11.
     10,           4.,          12.
     11,           4.,          13.
     12,    6.0999999,          -7.
     13,           1.,          12.
     14,           1.,          11.
     15,           4.,          -7.
     16,  -1.10000002,          13.
     17,  -1.10000002,          11.
     18,           1.,          13.
     19,           1.,          -7.
     20,  -4.69999981,          11.
** ... 1542 like lines cut
*Element, type=CPE4R
 1,   1,  27, 374,  54
 2,  27,  28, 375, 374
 3,  28,  29, 376, 375
 4,  29,  30, 377, 376
 5,  30,  31, 378, 377
 6,  31,  32, 379, 378
 7,  32,  33, 380, 379
 8,  33,   2,  34, 380
 9,  54, 374, 381,  53
10, 374, 375, 382, 381
11, 375, 376, 383, 382
12, 376, 377, 384, 383
13, 377, 378, 385, 384
14, 378, 379, 386, 385
15, 379, 380, 387, 386
16, 380,  34,  35, 387
17,  53, 381, 388,  52
18, 381, 382, 389, 388
19, 382, 383, 390, 389
20, 383, 384, 391, 390
** ... 614 like lines cut
*Element, type=CPS4R
635,  16, 206, 876, 232
636, 206, 207, 877, 876
637, 207, 208, 878, 877
638, 208, 209, 879, 878
639, 209, 210, 880, 879
640, 210, 211, 881, 880
641, 211, 212, 882, 881
642, 212, 213, 883, 882
643, 213,  17, 214, 883
644, 232, 876, 884, 231
645, 876, 877, 885, 884
646, 877, 878, 886, 885
647, 878, 879, 887, 886
648, 879, 880, 888, 887
649, 880, 881, 889, 888
650, 881, 882, 890, 889
651, 882, 883, 891, 890
652, 883, 214, 215, 891
653, 231, 884, 892, 230
654, 884, 885, 893, 892
** ... 817 like lines cut
*Nset, nset=Set-1
   1,   2,   3,   4,   5,   6,   7,   8,   9,  10,  11,  12,  13,  14,  15,  27
  28,  29,  30,  31,  32,  33,  34,  35,  36,  37,  38,  39,  40,  41,  42,  43
  44,  45,  46,  47,  48,  49,  50,  51,  52,  53,  54,  55,  56,  57,  58,  59
  60,  61,  62,  63,  64,  65,  66,  67,  68,  69,  70,  71,  72,  73,  74,  75
  76,  77,  78,  79,  80,  81,  82,  83,  84,  85,  86,  87,  88,  89,  90,  91
  92,  93,  94,  95,  96,  97,  98,  99, 100, 101, 102, 103, 104, 105, 106, 107
 108, 109, 110, 111, 112, 113, 114, 115, 116, 117, 118, 119, 120, 121, 122, 123
 124, 125, 126, 127, 128, 129, 130, 131, 132, 133, 134, 135, 136, 137, 138, 139
 140, 141, 142, 143, 144, 145, 146, 147, 148, 149, 150, 151, 152, 153, 154, 155
 156, 157, 158, 159, 160, 161, 162, 163, 164, 165, 166, 167, 168, 169, 170, 171
 172, 173, 174, 175, 176, 177, 178, 179, 180, 181, 182, 183, 184, 185, 186, 187
 188, 189, 190, 191, 192, 193, 194, 195, 196, 197, 198, 199, 200, 201, 202, 203
 204, 205, 374, 375, 376, 377, 378, 379, 380, 381, 382, 383, 384, 385, 386, 387
 388, 389, 390, 391, 392, 393, 394, 395, 396, 397, 398, 399, 400, 401, 402, 403
 404, 405, 406, 407, 408, 409, 410, 411, 412, 413, 414, 415, 416, 417, 418, 419
 420, 421, 422, 423, 424, 425, 426, 427, 428, 429, 430, 431, 432, 433, 434, 435
 436, 437, 438, 439, 440, 441, 442, 443, 444, 445, 446, 447, 448, 449, 450, 451
 452, 453, 454, 455, 456, 457, 458, 459, 460, 461, 462, 463, 464, 465, 466, 467
 468, 469, 470, 471, 472, 473, 474, 475, 476, 477, 478, 479, 480, 481, 482, 483
 484, 485, 486, 487, 488, 489, 490, 491, 492, 493, 494, 495, 496, 497, 498, 499
** ... 24 like lines cut
*Elset, elset=Set-1, generate
   1,  634,    1
*Nset, nset=Set-26, generate
    1,  1562,     1
*Elset, elset=Set-26, generate
    1,  1471,     1
*Nset, nset=Bottom
   7,   8,  12,  15,  19,  24,  25,  26,  91,  92,  93,  94,  95,  96,  97, 152
 153, 154, 155, 156, 157, 199, 200, 201, 202, 203, 204, 205, 250, 251, 252, 253
 254, 255, 256, 257, 258, 259, 260, 320, 321, 322, 323, 324, 325, 326, 361, 362
 363, 364, 365, 366, 367, 368, 369, 370, 371, 372, 373
*Nset, nset=left
  22,  23,  26, 276, 277, 278, 279, 280, 281, 282, 283, 344, 345, 346, 347, 348
 349, 350, 351, 352, 353, 354, 355, 356, 357, 358, 359, 360
*Nset, nset=right
   3,   4,   8,  41,  42,  43,  44,  45,  46,  47,  98,  99, 100, 101, 102, 103
 104, 105, 106, 107, 108, 109, 110, 111, 112, 113, 114
*Nset, nset=nodes_perm
  10,  11,  13,  18, 131, 132, 133, 134, 171, 172, 173, 174, 175, 176, 177, 178
 179, 180, 181, 221, 222, 223, 224, 225
*Elset, elset=_SoilUndr_perim_S4, internal
 289, 297, 305, 313, 321, 455, 458, 461, 464, 467, 470, 473, 476, 479, 482, 485
 488,
*Elset, elset=_SoilUndr_perim_S3, internal, generate
 698,  703,    1
*Surface, type=ELEMENT, name=SoilUndr_perim
_SoilUndr_perim_S4, S4
_SoilUndr_perim_S3, S3
** Section: Section-3-SOIL_WHOLE
*Solid Section, elset=Set-26, material=SOIL
,
*End Part
**  
**
** ASSEMBLY
**
*Assembly, name=Assembly
**  
*Instance, name=FND-1, part=FND
        27.5,          29.,           0.
*End Instance
**  
*Instance, name=PIER-1, part=PIER
         18.,         32.5,           0.
*End Instance
**  
*Instance, name=MASS-1, part=MASS
         18.,          30.,           0.
*End Instance
**  
*Instance, name=Soil-1, part=Soil
        15.5,          14.,           0.
*End Instance
**  
*Node
      1,          18.,          27.
*MPC
BEAM, Soil-1.8, Soil-1.26
BEAM, Soil-1.3, Soil-1.23
*Nset, nset=M_SET-9, instance=FND-1
  1,  2,  3,  4,  5,  6,  7, 22, 24, 26, 28, 30, 32, 46
*Nset, nset=M_TOPFND, instance=FND-1
  1,  2,  3,  4,  5,  6,  7, 22, 24, 26, 28, 30, 32, 46
*Nset, nset=M_TOPFND, instance=PIER-1
 2,
*Nset, nset=RP_F
 1,
*Nset, nset=S_SET-10, instance=PIER-1
 1, 2
*Nset, nset=S_SET-11, instance=PIER-1
 3,
*Nset, nset=Wire-1-Set-1, instance=Soil-1
  3,  8, 23, 26
*Nset, nset=RP_F_CNS_, internal
 1,
*Elset, elset=_M_SURF-1_S1, internal, instance=FND-1, generate
 1,  6,  1
*Elset, elset=_M_SURF-1_S1_1, internal, instance=FND-1
  1,  2,  3,  4,  5,  6, 13, 14, 15, 16, 17, 18
*Elset, elset=_M_SURF-1_S1_2, internal, instance=FND-1
  1,  2,  3,  4,  5,  6, 13, 14, 15, 16, 17, 18
*Elset, elset=_M_SURF-FNDTOP_S1, internal, instance=FND-1
  1,  2,  3,  4,  5,  6, 13, 14, 15, 16, 17, 18
*Nset, nset=_PICKEDSET62, internal
 1,
*Nset, nset=_PickedSet30, internal
 1,
*Elset, elset=_S_PIER_SNEG, internal, instance=PIER-1
 1,
*Elset, elset=_S_SURF-3_SNEG, internal, instance=PIER-1
 1,
*Surface, type=ELEMENT, name=M_SURF-FNDTOP
_M_SURF-FNDTOP_S1, S1
*Surface, type=ELEMENT, name=S_PIER
_S_PIER_SNEG, SNEG
*Surface, type=ELEMENT, name=S_SURF-3
_S_SURF-3_SNEG, SNEG
*Surface, type=NODE, name=Soil-1_nodes_perm_CNS_, internal
Soil-1.nodes_perm, 1.
*Surface, type=NODE, name=RP_F_CNS__CNS_, internal
RP_F_CNS_, 1.
** Constraint: F-P-1
*Tie, name=F-P-1, adjust=yes, position tolerance=0.5, type=NODE TO SURFACE
S_PIER, RP_F_CNS__CNS_
** Constraint: M-F
*Coupling, constraint name=M-F, ref node=MASS-1.MASS, surface=M_SURF-FNDTOP
*Distributing, weighting method=UNIFORM
** Constraint: RigidBody-1
*Rigid Body, ref node=_PickedSet30, elset=FND-1.WHOLE_FND, position=CENTER OF MASS
*End Assembly
*Amplitude, name=Cyclic_man
             0.,              0.,            0.05,     2.506664671,             0.1,     4.973797743,            0.15,     7.362491054
            0.2,     9.635073482,            0.25,     11.75570505,             0.3,     13.69094212,            0.35,     15.41026486
            0.4,     16.88655851,            0.45,     18.09654105,             0.5,     19.02113033,            0.55,     19.64574501
            0.6,     19.96053457,            0.65,     19.96053457,             0.7,     19.64574501,            0.75,     19.02113033
            0.8,     18.09654105,            0.85,     16.88655851,             0.9,     15.41026486,            0.95,     13.69094212
             1.,     11.75570505,            1.05,     9.635073482,             1.1,     7.362491054,            1.15,     4.973797743
            1.2,     2.506664671,            1.25,      2.4503e-15,             1.3,    -2.506664671,            1.35,    -4.973797743
            1.4,    -7.362491054,            1.45,    -9.635073482,             1.5,    -11.75570505,            1.55,    -13.69094212
            1.6,    -15.41026486,            1.65,    -16.88655851,             1.7,    -18.09654105,            1.75,    -19.02113033
            1.8,    -19.64574501,            1.85,    -19.96053457,             1.9,    -19.96053457,            1.95,    -19.64574501
             2.,    -19.02113033,            2.05,    -18.09654105,             2.1,    -16.88655851,            2.15,    -15.41026486
            2.2,    -13.69094212,            2.25,    -11.75570505,             2.3,    -9.635073482,            2.35,    -7.362491054
            2.4,    -4.973797743,            2.45,    -2.506664671,             2.5,    -4.90059e-15,            2.55,     2.506664671
            2.6,     4.973797743,            2.65,     7.362491054,             2.7,     9.635073482,            2.75,     11.75570505
            2.8,     13.69094212,            2.85,     15.41026486,             2.9,     16.88655851,            2.95,     18.09654105
             3.,     19.02113033,            3.05,     19.64574501,             3.1,     19.96053457,            3.15,     19.96053457
            3.2,     19.64574501,            3.25,     19.02113033,             3.3,     18.09654105,            3.35,     16.88655851
            3.4,     15.41026486,            3.45,     13.69094212,             3.5,     11.75570505,            3.55,     9.635073482
            3.6,     7.362491054,            3.65,     4.973797743,             3.7,     2.506664671,            3.75,     7.35089e-15
            3.8,    -2.506664671,            3.85,    -4.973797743,             3.9,    -7.362491054,            3.95,    -9.635073482
** ... 31 like lines cut
*Amplitude, name=EQ
             0.,          0.0124,           0.005,          0.0092,            0.01,          0.0056,           0.015,         -0.0004
           0.02,         -0.0032,           0.025,         -0.0004,            0.03,          0.0048,           0.035,          0.0112
           0.04,           0.016,           0.045,          0.0168,            0.05,           0.014,           0.055,            0.01
           0.06,          0.0056,           0.065,           0.002,            0.07,          0.0004,           0.075,          0.0008
           0.08,          0.0036,           0.085,          0.0068,            0.09,          0.0104,           0.095,           0.012
            0.1,          0.0132,           0.105,          0.0124,            0.11,          0.0092,           0.115,          0.0064
           0.12,          0.0032,           0.125,          0.0028,            0.13,          0.0064,           0.135,          0.0108
           0.14,          0.0136,           0.145,          0.0136,            0.15,           0.012,           0.155,           0.008
           0.16,          0.0016,           0.165,         -0.0004,            0.17,          0.0044,           0.175,          0.0088
           0.18,          0.0136,           0.185,          0.0172,            0.19,           0.014,           0.195,          0.0056
            0.2,         -0.0076,           0.205,         -0.0192,            0.21,         -0.0208,           0.215,          -0.006
           0.22,           0.026,           0.225,          0.0636,            0.23,          0.0868,           0.235,          0.0852
           0.24,          0.0572,           0.245,          0.0016,            0.25,         -0.0628,           0.255,           -0.11
           0.26,          -0.118,           0.265,         -0.0816,            0.27,         -0.0208,           0.275,          0.0372
           0.28,          0.0832,           0.285,           0.106,            0.29,          0.0984,           0.295,          0.0684
            0.3,           0.032,           0.305,         -0.0096,            0.31,           -0.04,           0.315,         -0.0544
           0.32,         -0.0516,           0.325,          -0.024,            0.33,          0.0076,           0.335,           0.034
           0.34,          0.0544,           0.345,          0.0548,            0.35,          0.0368,           0.355,          0.0168
           0.36,          -0.004,           0.365,         -0.0264,            0.37,         -0.0424,           0.375,         -0.0432
           0.38,         -0.0228,           0.385,          0.0136,            0.39,          0.0472,           0.395,          0.0544
** ... 231 like lines cut
*Amplitude, name=Ramp
             0.,              0.,             0.1,             0.1,             0.2,             0.2,             0.3,             0.3
            0.5,             0.5,             0.6,             0.6,             0.8,             0.8,             0.9,             0.9
             1.,              1.
*Amplitude, name=cyclic, definition=PERIODIC
1,            6.28,              0.,              0.
             1.,              0.
*Amplitude, name=leftRight
             0.,              0.,            0.25,            0.25,             0.5,             0.5,            0.75,            0.75
             1.,              1.,            1.25,            0.75,             1.5,             0.5,            1.75,            0.25
             2.,              0.,            2.25,           -0.25,             2.5,            -0.5,            2.75,           -0.75
             3.,             -1.,            3.25,           -0.75,             3.5,            -0.5,            3.75,           -0.25
             4.,              0.
** 
** MATERIALS
** 
*Material, name=FOUNDATION
*Density
 2.1,
*Elastic
 2e+06, 0.3
*Plastic
2200.,0.
*Material, name=MASS
*Density
3.,
*Material, name=PIER
*Density
3.,
*Elastic
 2e+10, 0.33
*Material, name=SOIL
*Damping, beta=0.0017
*Density
 1.8,
*Depvar
      2,
*Elastic, dependencies=2
  8560.,   0.48, ,     0.,     0.
  8560.,   0.48, ,     0.,  8560.
 14480.,   0.48, ,     0., 14480.
 20400.,   0.48, ,     0., 20400.
 26320.,   0.48, ,     0., 26320.
 32240.,   0.48, ,     0., 32240.
 38160.,   0.48, ,     0., 38160.
 44080.,   0.48, ,     0., 44080.
 50000.,   0.48, ,     0., 50000.
 55920.,   0.48, ,     0., 55920.
 61840.,   0.48, ,     0., 61840.
 67760.,   0.48, ,     0., 67760.
 73680.,   0.48, ,     0., 73680.
 79600.,   0.48, ,     0., 79600.
 85520.,   0.48, ,     0., 85520.
 91440.,   0.48, ,     0., 91440.
 97360.,   0.48, ,     0., 97360.
103280.,   0.48, ,     0.,103280.
109200.,   0.48, ,     0.,109200.
115120.,   0.48, ,     0.,115120.
** ... 12 like lines cut
*Plastic, dependencies=2, hardening=COMBINED, datatype=PARAMETERS, number backstresses=1
  0.74,  8560.,  1283., ,     0.,     0.
  0.74,  8560.,  1283., ,     0.,   4.28
  1.25, 14480.,  1283., ,     0.,   7.24
  1.77, 20400.,  1283., ,     0.,   10.2
  2.28, 26320.,  1283., ,     0.,  13.16
  2.79, 32240.,  1283., ,     0.,  16.12
   3.3, 38160.,  1283., ,     0.,  19.08
  3.82, 44080.,  1283., ,     0.,  22.04
  4.33, 50000.,  1283., ,     0.,    25.
  4.84, 55920.,  1283., ,     0.,  27.96
  5.36, 61840.,  1283., ,     0.,  30.92
  5.87, 67760.,  1283., ,     0.,  33.88
  6.38, 73680.,  1283., ,     0.,  36.84
  6.89, 79600.,  1283., ,     0.,   39.8
  7.41, 85520.,  1283., ,     0.,  42.76
  7.92, 91440.,  1283., ,     0.,  45.72
  8.43, 97360.,  1283., ,     0.,  48.68
  8.94,103280.,  1283., ,     0.,  51.64
  9.46,109200.,  1283., ,     0.,   54.6
  9.97,115120.,  1283., ,     0.,  57.56
** ... 12 like lines cut
*User Defined Field
** 
** INTERACTION PROPERTIES
** 
*Surface Interaction, name=Cohesive
1.,
*Cohesive Behavior
0., 5e+07, 5e+07
*Surface Interaction, name=NormalTangent
1.,
*Friction, lagrange, taumax=10.
 0.9,
*Surface Behavior, pressure-overclosure=EXPONENTIAL
1e-05, 0.1
** 
** INTERACTIONS
** 
** Interaction: Cohesive
*Contact Pair, interaction=Cohesive, small sliding
Soil-1_nodes_perm_CNS_, FND-1.Fperim
** ----------------------------------------------------------------
** 
** STEP: apply force
** 
*Step, name="apply force", nlgeom=NO, inc=1000000
Force
*Dynamic
0.05,5.,5e-09
** 
** BOUNDARY CONDITIONS
** 
** Name: Bottom Type: Displacement/Rotation
*Boundary
Soil-1.Bottom, 1, 1
Soil-1.Bottom, 2, 2
Soil-1.Bottom, 6, 6
** 
** LOADS
** 
** Name: Load-2   Type: Concentrated force
*Cload, amplitude=leftRight
MASS-1.MASS, 1, 500.
MASS-1.MASS, 2, -100.
** 
** OUTPUT REQUESTS
** 
*Restart, write, frequency=0
** 
** FIELD OUTPUT: F-Output-1
** 
*Output, field, time interval=1.
*Node Output
CF, RF, U, UR, UT
*Element Output, directions=YES
E, EE, PEEQ, PEEQMAX, PEMAG, S
*Contact Output
CDISP, CDSTRESS, CSTRESS
** 
** HISTORY OUTPUT: H-Output-1
** 
*Output, history, number interval=1
*Element Output
IRF1, IRF2, IRF3, IRM1, IRM2, IRM3
*Contact Output
CAREA, CDISP, CFS1, CFS2, CFS3, CFSM, CSTRESS
*End Step
