*Heading
** Job name: Model_v9_Pier Model name: Model_v09_3Parts
** Generated by: Abaqus/CAE 6.14-1
*Preprint, echo=NO, model=NO, history=NO, contact=NO
**
** PARTS
**
*Part, name=Part-2
*Node
      1,          22.,          38.
      2,          22.,          43.
      3,          24.,          38.
      4,          20.,          38.
      5,          20.,         37.5
      6,          24.,         37.5
      7,          22.,         38.5
      8,          22.,          39.
      9,          22.,         39.5
     10,          22.,          40.
     11,          22.,         40.5
     12,          22.,          41.
     13,          22.,         41.5
     14,          22.,          42.
     15,          22.,         42.5
     16,        23.75,          38.
     17,         23.5,          38.
     18,        23.25,          38.
     19,          23.,          38.
     20,        22.75,          38.
** ... 24 like lines cut
*Element, type=B21
 1,  1,  7
 2,  7,  8
 3,  8,  9
 4,  9, 10
 5, 10, 11
 6, 11, 12
 7, 12, 13
 8, 13, 14
 9, 14, 15
10, 15,  2
*Element, type=CPE4R
11,  3, 16, 44,  6
12, 16, 17, 43, 44
13, 17, 18, 42, 43
14, 18, 19, 41, 42
15, 19, 20, 40, 41
16, 20, 21, 39, 40
17, 21, 22, 38, 39
18, 22,  1, 37, 38
19,  1, 23, 36, 37
20, 23, 24, 35, 36
21, 24, 25, 34, 35
22, 25, 26, 33, 34
23, 26, 27, 32, 33
24, 27, 28, 31, 32
25, 28, 29, 30, 31
26, 29,  4,  5, 30
*Nset, nset=Footing
  1,  3,  4,  5,  6, 16, 17, 18, 19, 20, 21, 22, 23, 24, 25, 26
 27, 28, 29, 30, 31, 32, 33, 34, 35, 36, 37, 38, 39, 40, 41, 42
 43, 44
*Elset, elset=Footing, generate
 11,  26,   1
*Nset, nset=Beam
  1,  2,  7,  8,  9, 10, 11, 12, 13, 14, 15
*Elset, elset=Beam, generate
  1,  10,   1
*Nset, nset=Mass
 2,
*Elset, elset=_F-S_S3, internal, generate
 11,  26,   1
*Surface, type=ELEMENT, name=F-S
_F-S_S3, S3
** Section: Section_beam  Profile: Profile-1
*Beam Section, elset=Beam, material=Pier, poisson = 0.2, temperature=GRADIENTS, section=CIRC
3.
0.,0.,-1.
** Section: Section-1-FOOTING
*Solid Section, elset=Footing, material=SOIL
,
*End Part
**  
*Part, name=SOIL
*Node
      1,          35.,          -5.
      2,          35.,          25.
      3,           5.,          25.
      4,           5.,          -5.
      5,          50.,          -5.
      6,          50.,          25.
      7,          75.,          25.
      8,          75.,          -5.
      9,         105.,          -5.
     10,         105.,          25.
     11,          60.,          -5.
     12,          60.,          25.
     13,          35.,         -4.5
     14,          35.,          -4.
     15,          35.,         -3.5
     16,          35.,          -3.
     17,          35.,         -2.5
     18,          35.,          -2.
     19,          35.,         -1.5
     20,          35.,          -1.
** ... 9801 like lines cut
*Element, type=CPE4R
   1,    1,   13,  677,  188
   2,   13,   14,  678,  677
   3,   14,   15,  679,  678
   4,   15,   16,  680,  679
   5,   16,   17,  681,  680
   6,   17,   18,  682,  681
   7,   18,   19,  683,  682
   8,   19,   20,  684,  683
   9,   20,   21,  685,  684
  10,   21,   22,  686,  685
  11,   22,   23,  687,  686
  12,   23,   24,  688,  687
  13,   24,   25,  689,  688
  14,   25,   26,  690,  689
  15,   26,   27,  691,  690
  16,   27,   28,  692,  691
  17,   28,   29,  693,  692
  18,   29,   30,  694,  693
  19,   30,   31,  695,  694
  20,   31,   32,  696,  695
** ... 9580 like lines cut
*Nset, nset=SOIL, generate
    1,  9821,     1
*Elset, elset=SOIL, generate
    1,  9600,     1
*Nset, nset=SURF_SOIL-F, generate
 553,  568,    1
*Nset, nset=SOIL_BOTNODES
   1,   4,   5,   8,   9,  11, 160, 161, 162, 163, 164, 165, 166, 167, 168, 169
 170, 171, 172, 173, 174, 175, 176, 177, 178, 179, 180, 181, 182, 183, 184, 185
 186, 187, 188, 189, 190, 191, 192, 193, 194, 195, 196, 197, 198, 199, 200, 201
 202, 203, 204, 205, 206, 207, 208, 209, 210, 211, 212, 213, 214, 215, 216, 217
 365, 366, 367, 368, 369, 370, 371, 372, 373, 374, 375, 376, 377, 378, 379, 380
 381, 382, 383, 384, 385, 386, 387, 388, 389, 390, 391, 392, 393, 580, 581, 582
 583, 584, 585, 586, 587, 588, 589, 590, 591, 592, 593, 594, 595, 596, 597, 598
 599, 600, 601, 602, 603, 604, 605, 606, 607, 608, 609, 610, 611, 612, 613, 614
 615, 616, 617, 618, 619, 620, 621, 622, 623, 624, 625, 626, 627, 628, 629, 630
 631, 632, 633, 634, 635, 636, 637, 638, 639, 640, 641, 642, 643, 644, 645, 646
 647,
*Nset, nset=LEFT_NODES
   3,   4, 101, 102, 103, 104, 105, 106, 107, 108, 109, 110, 111, 112, 113, 114
 115, 116, 117, 118, 119, 120, 121, 122, 123, 124, 125, 126, 127, 128, 129, 130
 131, 132, 133, 134, 135, 136, 137, 138, 139, 140, 141, 142, 143, 144, 145, 146
 147, 148, 149, 150, 151, 152, 153, 154, 155, 156, 157, 158, 159
*Nset, nset=RIGHT_NODES
   9,  10, 394, 395, 396, 397, 398, 399, 400, 401, 402, 403, 404, 405, 406, 407
 408, 409, 410, 411, 412, 413, 414, 415, 416, 417, 418, 419, 420, 421, 422, 423
 424, 425, 426, 427, 428, 429, 430, 431, 432, 433, 434, 435, 436, 437, 438, 439
 440, 441, 442, 443, 444, 445, 446, 447, 448, 449, 450, 451, 452
*Elset, elset=_SURF-S-F_S2, internal, generate
 6180,  7080,    60
*Nset, nset=UnderFns
  561,  598, 6990, 6991, 6992, 6993, 6994, 6995, 6996, 6997, 6998, 6999, 7000, 7001, 7002, 7003
 7004, 7005, 7006, 7007, 7008, 7009, 7010, 7011, 7012, 7013, 7014, 7015, 7016, 7017, 7018, 7019
 7020, 7021, 7022, 7023, 7024, 7025, 7026, 7027, 7028, 7029, 7030, 7031, 7032, 7033, 7034, 7035
 7036, 7037, 7038, 7039, 7040, 7041, 7042, 7043, 7044, 7045, 7046, 7047, 7048
*Surface, type=ELEMENT, name=SURF-S-F
_SURF-S-F_S2, S2
** Section: Section-2-SOIL
*Solid Section, elset=SOIL, material=SOIL
,
*End Part
**  
**
** ASSEMBLY
**
*Assembly, name=Assembly
**  
*Instance, name=SOIL-1, part=SOIL
         14.,           0.,           0.
*End Instance
**  
*Instance, name=Part-2-1, part=Part-2
         47.,        -12.5,           0.
*End Instance
**  
*Node
      1,          69.,         25.5,           0.
*MPC
BEAM, SOIL-1.394, SOIL-1.159
BEAM, SOIL-1.395, SOIL-1.158
BEAM, SOIL-1.396, SOIL-1.157
BEAM, SOIL-1.397, SOIL-1.156
BEAM, SOIL-1.398, SOIL-1.155
BEAM, SOIL-1.399, SOIL-1.154
BEAM, SOIL-1.400, SOIL-1.153
BEAM, SOIL-1.401, SOIL-1.152
BEAM, SOIL-1.402, SOIL-1.151
BEAM, SOIL-1.403, SOIL-1.150
BEAM, SOIL-1.404, SOIL-1.149
BEAM, SOIL-1.405, SOIL-1.148
BEAM, SOIL-1.406, SOIL-1.147
BEAM, SOIL-1.407, SOIL-1.146
BEAM, SOIL-1.408, SOIL-1.145
BEAM, SOIL-1.409, SOIL-1.144
BEAM, SOIL-1.410, SOIL-1.143
BEAM, SOIL-1.411, SOIL-1.142
BEAM, SOIL-1.412, SOIL-1.141
BEAM, SOIL-1.413, SOIL-1.140
** ... 40 like lines cut
*Nset, nset=F_CornRight, instance=Part-2-1
 6,
*Nset, nset=F_centreOfmass, instance=Part-2-1
 1,
*Nset, nset=F_cornerLeft, instance=Part-2-1
 5,
*Nset, nset=RP_mass
 1,
*Nset, nset=Set-7, instance=Part-2-1, generate
  1,  44,   1
*Elset, elset=Set-7, instance=Part-2-1, generate
  1,  26,   1
*Nset, nset=WIRE-1-SET-1, instance=SOIL-1
   3,  10, 101, 102, 103, 104, 105, 106, 107, 108, 109, 110, 111, 112, 113, 114
 118, 119, 120, 121, 122, 123, 124, 125, 126, 127, 128, 129, 130, 131, 132, 133
 134, 135, 136, 137, 138, 142, 143, 144, 145, 146, 147, 148, 149, 150, 151, 152
 153, 154, 155, 156, 157, 394, 395, 396, 397, 398, 399, 400, 401, 402, 403, 404
 405, 406, 407, 408, 409, 413, 414, 415, 416, 417, 418, 419, 420, 421, 422, 423
 424, 425, 426, 427, 428, 430, 431, 432, 433, 434, 435, 436, 437, 438, 439, 440
 441, 442, 443, 444, 445, 446, 447, 448, 449, 450, 451, 452
*Nset, nset=_PickedSet21, internal
 1,
** Constraint: Constraint-1
*Tie, name=Constraint-1, adjust=yes, position tolerance=0.01, type=SURFACE TO SURFACE
SOIL-1.SURF-S-F, Part-2-1.F-S
** Constraint: Rigid_body
*Rigid Body, ref node=_PickedSet21, elset=Set-7, position=CENTER OF MASS
*End Assembly
*Amplitude, name=EQ
             0.,           0.006,           0.005,          0.0044,            0.01,          0.0027,           0.015,         -0.0002
           0.02,         -0.0015,           0.025,         -0.0002,            0.03,          0.0023,           0.035,          0.0054
           0.04,          0.0077,           0.045,          0.0081,            0.05,          0.0068,           0.055,          0.0048
           0.06,          0.0027,           0.065,           0.001,            0.07,          0.0002,           0.075,          0.0004
           0.08,          0.0017,           0.085,          0.0033,            0.09,           0.005,           0.095,          0.0058
            0.1,          0.0064,           0.105,           0.006,            0.11,          0.0044,           0.115,          0.0031
           0.12,          0.0015,           0.125,          0.0014,            0.13,          0.0031,           0.135,          0.0052
           0.14,          0.0066,           0.145,          0.0066,            0.15,          0.0058,           0.155,          0.0039
           0.16,          0.0008,           0.165,         -0.0002,            0.17,          0.0021,           0.175,          0.0042
           0.18,          0.0066,           0.185,          0.0083,            0.19,          0.0068,           0.195,          0.0027
            0.2,         -0.0037,           0.205,         -0.0093,            0.21,           -0.01,           0.215,         -0.0029
           0.22,          0.0126,           0.225,          0.0307,            0.23,          0.0419,           0.235,          0.0411
           0.24,          0.0276,           0.245,          0.0008,            0.25,         -0.0303,           0.255,         -0.0529
           0.26,         -0.0572,           0.265,         -0.0394,            0.27,           -0.01,           0.275,           0.018
           0.28,          0.0402,           0.285,          0.0514,            0.29,          0.0475,           0.295,           0.033
            0.3,          0.0154,           0.305,         -0.0046,            0.31,         -0.0193,           0.315,         -0.0263
           0.32,         -0.0249,           0.325,         -0.0116,            0.33,          0.0037,           0.335,          0.0164
           0.34,          0.0263,           0.345,          0.0265,            0.35,          0.0178,           0.355,          0.0081
           0.36,         -0.0019,           0.365,         -0.0127,            0.37,         -0.0205,           0.375,         -0.0209
           0.38,          -0.011,           0.385,          0.0066,            0.39,          0.0228,           0.395,          0.0263
** ... 481 like lines cut
*Amplitude, name=Load
             0.,              0.,             0.1,             0.1,             0.3,             0.3,             0.5,             0.5
            0.7,             0.7,             0.9,             0.9,              1.,              1.
** 
** MATERIALS
** 
*Material, name=FOOTING
*Density
 0.1,
*Elastic
 1e+07, 0.25
*Material, name=Pier
*Density
 0.1,
*Elastic
 1e+07, 0.2
*Material, name=SOIL
*Damping, beta=0.00173
*Density
 1.8,
*Depvar
      2,
*Elastic, dependencies=2
  7080.,   0.48, ,     0.,     0.
  7080.,   0.48, ,  7080.,     0.
 10040.,   0.48, , 10040.,     0.
 13000.,   0.48, , 13000.,     0.
 15960.,   0.48, , 15960.,     0.
 18920.,   0.48, , 18920.,     0.
 21880.,   0.48, , 21880.,     0.
 24840.,   0.48, , 24840.,     0.
 27800.,   0.48, , 27800.,     0.
 30760.,   0.48, , 30760.,     0.
 33720.,   0.48, , 33720.,     0.
 36680.,   0.48, , 36680.,     0.
 39640.,   0.48, , 39640.,     0.
 42600.,   0.48, , 42600.,     0.
 45560.,   0.48, , 45560.,     0.
 48520.,   0.48, , 48520.,     0.
 51480.,   0.48, , 51480.,     0.
 54440.,   0.48, , 54440.,     0.
 57400.,   0.48, , 57400.,     0.
 60360.,   0.48, , 60360.,     0.
** ... 41 like lines cut
*Plastic, dependencies=2, hardening=COMBINED, datatype=PARAMETERS, number backstresses=1
  0.61,  7080.,  1283., ,     0.,     0.
  0.61,  7080.,  1283., ,     0.,   6.13
  0.87, 10040.,  1283., ,     0.,   8.69
  1.13, 13000.,  1283., ,     0.,  11.26
  1.38, 15960.,  1283., ,     0.,  13.82
  1.64, 18920.,  1283., ,     0.,  16.39
  1.89, 21880.,  1283., ,     0.,  18.95
  2.15, 24840.,  1283., ,     0.,  21.51
  2.41, 27800.,  1283., ,     0.,  24.08
  2.66, 30760.,  1283., ,     0.,  26.64
  2.92, 33720.,  1283., ,     0.,   29.2
  3.18, 36680.,  1283., ,     0.,  31.77
  3.43, 39640.,  1283., ,     0.,  34.33
  3.69, 42600.,  1283., ,     0.,  36.89
  3.95, 45560.,  1283., ,     0.,  39.46
   4.2, 48520.,  1283., ,     0.,  42.02
  4.46, 51480.,  1283., ,     0.,  44.58
  4.71, 54440.,  1283., ,     0.,  47.15
  4.97, 57400.,  1283., ,     0.,  49.71
  5.23, 60360.,  1283., ,     0.,  52.27
** ... 41 like lines cut
*User Defined Field
** ----------------------------------------------------------------
** 
** STEP: Geostatic
** 
*Step, name=Geostatic, nlgeom=NO
Establishing geostatic stresses
*Geostatic, utol
0.05, 1., 1e-05, 0.05
** 
** BOUNDARY CONDITIONS
** 
** Name: Disp-BC-1 Type: Displacement/Rotation
*Boundary
SOIL-1.SOIL_BOTNODES, 1, 1
** Name: Disp-BC-2 Type: Displacement/Rotation
*Boundary
SOIL-1.SOIL_BOTNODES, 2, 2
** Name: Footing Type: Displacement/Rotation
*Boundary
RP_mass, 1, 1
** 
** LOADS
** 
** Name: GRAVITY-1   Type: Gravity
*Dload
SOIL-1.SOIL, GRAV, 9.81, 0., -1.
** 
** OUTPUT REQUESTS
** 
*Restart, write, frequency=0
** 
** FIELD OUTPUT: F-Output-1
** 
*Output, field
*Node Output
CF, RF, U, V
*Element Output, directions=YES
LE, S
*Contact Output
CDISP, CSTRESS
** 
** HISTORY OUTPUT: H-Output-1
** 
*Output, history, variable=PRESELECT
*End Step
** ----------------------------------------------------------------
** 
** STEP: Self_weight
** 
*Step, name=Self_weight, nlgeom=NO, inc=1000000
Apply self weight
*Static
0.005, 1., 1e-05, 0.005
** 
** LOADS
** 
** Name: Load-3   Type: Gravity
*Dload
Set-7, GRAV, 1., 0., -1.
** 
** OUTPUT REQUESTS
** 
*Restart, write, frequency=0
** 
** FIELD OUTPUT: F-Output-1
** 
*Output, field
*Node Output
CF, RF, U, V
*Element Output, directions=YES
E, S
*Contact Output
CDISP, CSTRESS
** 
** HISTORY OUTPUT: H-Output-1
** 
*Output, history, variable=PRESELECT
*End Step
** ----------------------------------------------------------------
** 
** STEP: Step-3
** 
*Step, name=Step-3, nlgeom=NO, inc=100000000
Dynamic
*Dynamic,alpha=0.
0.001,10.,0.001
** 
** BOUNDARY CONDITIONS
** 
** Name: Acc_BC Type: Acceleration/Angular acceleration
*Boundary, op=NEW, amplitude=EQ, type=ACCELERATION
SOIL-1.SOIL_BOTNODES, 1, 1, 5.
** Name: Disp-BC-1 Type: Displacement/Rotation
*Boundary, op=NEW
** Name: Disp-BC-2 Type: Displacement/Rotation
*Boundary, op=NEW
SOIL-1.SOIL_BOTNODES, 2, 2
** Name: Footing Type: Displacement/Rotation
*Boundary, op=NEW
RP_mass, 1, 1
** 
** LOADS
** 
** Name: Load   Type: Concentrated force
*Cload, amplitude=Load
RP_mass, 2, -50.
** 
** OUTPUT REQUESTS
** 
*Restart, write, frequency=0
** 
** FIELD OUTPUT: F-Output-1
** 
*Output, field, frequency=1
*Node Output
A, CF, RF, U, V
*Element Output, directions=YES
E, S
*Contact Output
CDISP, CSTRESS
** 
** HISTORY OUTPUT: H-Output-1
** 
*Output, history, variable=PRESELECT, frequency=1
*End Step
