*Heading
** Job name: Model_v5_dashpots Model name: Model_v5_dashpots
** Generated by: Abaqus/CAE 6.14-1
*Preprint, echo=NO, model=NO, history=NO, contact=NO
**
** PARTS
**
*Part, name=FOOTING
*Node
      1,          7.5,          9.5
      2,         7.25,          9.5
      3,           7.,          9.5
      4,         6.75,          9.5
      5,          6.5,          9.5
      6,         6.25,          9.5
      7,           6.,          9.5
      8,         5.75,          9.5
      9,          5.5,          9.5
     10,         5.25,          9.5
     11,           5.,          9.5
     12,         4.75,          9.5
     13,          4.5,          9.5
     14,         4.25,          9.5
     15,           4.,          9.5
     16,         3.75,          9.5
     17,          3.5,          9.5
     18,          7.5,           9.
     19,         7.25,           9.
     20,           7.,           9.
** ... 15 like lines cut
*Element, type=CPE4R
 1,  1,  2, 19, 18
 2,  2,  3, 20, 19
 3,  3,  4, 21, 20
 4,  4,  5, 22, 21
 5,  5,  6, 23, 22
 6,  6,  7, 24, 23
 7,  7,  8, 25, 24
 8,  8,  9, 26, 25
 9,  9, 10, 27, 26
10, 10, 11, 28, 27
11, 11, 12, 29, 28
12, 12, 13, 30, 29
13, 13, 14, 31, 30
14, 14, 15, 32, 31
15, 15, 16, 33, 32
16, 16, 17, 34, 33
*Nset, nset=FOOTING-REFPT_, internal
 35,
*Nset, nset=FOOTING, generate
  1,  34,   1
*Elset, elset=FOOTING, generate
  1,  16,   1
*Nset, nset=SET-9
 35,
*Nset, nset=S_F_NODES, generate
 18,  34,   1
*Elset, elset=_SURF-FOOTINGBOT_S3, internal, generate
  1,  16,   1
*Elset, elset=_SURF-FOOTINGTOP_S1, internal, generate
  1,  16,   1
*Nset, nset=_PICKEDSET12, internal
 35,
*Nset, nset=_PickedSet13, internal
 35,
*Surface, type=ELEMENT, name=SURF-FOOTINGBOT
_SURF-FOOTINGBOT_S3, S3
*Surface, type=ELEMENT, name=SURF-FOOTINGTOP
_SURF-FOOTINGTOP_S1, S1
** Section: Section-1-FOOTING
*Solid Section, elset=FOOTING, material=FOOTING
,
*Element, type=MASS, elset=_PickedSet13__PICKEDSET12_SET-9_INERTIA-1___
17, 35
*Mass, elset=_PickedSet13__PICKEDSET12_SET-9_INERTIA-1___
10000., 
*End Part
**  
*Part, name=PIER
*Node
      1,          24.,         22.5
      2,          24.,          21.
      3,          24.,         19.5
      4,          24.,          18.
      5,          24.,         16.5
      6,          24.,          15.
      7,          24.,         13.5
      8,          24.,          12.
      9,          24.,         10.5
     10,          24.,           9.
     11,          24.,          7.5
     12,          24.,         22.5
*Element, type=B21
 1,  1,  2
 2,  2,  3
 3,  3,  4
 4,  4,  5
 5,  5,  6
 6,  6,  7
 7,  7,  8
 8,  8,  9
 9,  9, 10
10, 10, 11
*Nset, nset=PIER-REFPT_, internal
 12,
*Nset, nset=SET-3
 12,
*Nset, nset=S_PIER, generate
  1,  11,   1
*Elset, elset=S_PIER, generate
  1,  10,   1
*Elset, elset=_SURF-PIER_SPOS, internal, generate
  1,  10,   1
*Nset, nset=_PickedSet9, internal
 12,
*Surface, type=ELEMENT, name=SURF-PIER
_SURF-PIER_SPOS, SPOS
** Section: Section-2-S_PIER  Profile: Profile-1
*Beam Section, elset=S_PIER, material=PIER, poisson = 0.3, temperature=GRADIENTS, section=CIRC
3.
0.,0.,-1.
*Element, type=MASS, elset=_PickedSet9_SET-3_INERTIA-1__
11, 12
*Mass, elset=_PickedSet9_SET-3_INERTIA-1__
10000., 
*End Part
**  
*Part, name=SOIL
*Node
      1,           7.,         10.5
      2,           7.,         40.5
      3,          -3.,         40.5
      4,          -3.,         10.5
      5,          12.,         10.5
      6,          12.,         40.5
      7,          17.,         10.5
      8,          17.,         40.5
      9,          27.,         10.5
     10,          27.,         40.5
     11,          37.,         40.5
     12,          37.,         10.5
     13,          47.,         10.5
     14,          47.,         40.5
     15,          32.,         10.5
     16,          32.,         40.5
     17,           7.,          11.
     18,           7.,         11.5
     19,           7.,          12.
     20,           7.,         12.5
** ... 6141 like lines cut
*Element, type=CPE4R
   1,    1,   17,  675,  152
   2,   17,   18,  676,  675
   3,   18,   19,  677,  676
   4,   19,   20,  678,  677
   5,   20,   21,  679,  678
   6,   21,   22,  680,  679
   7,   22,   23,  681,  680
   8,   23,   24,  682,  681
   9,   24,   25,  683,  682
  10,   25,   26,  684,  683
  11,   26,   27,  685,  684
  12,   27,   28,  686,  685
  13,   28,   29,  687,  686
  14,   29,   30,  688,  687
  15,   30,   31,  689,  688
  16,   31,   32,  690,  689
  17,   32,   33,  691,  690
  18,   33,   34,  692,  691
  19,   34,   35,  693,  692
  20,   35,   36,  694,  693
** ... 5980 like lines cut
*Nset, nset=SET-1, generate
    1,  6161,     1
*Elset, elset=SET-1, generate
    1,  6000,     1
*Nset, nset=SOIL_BOTNODES
   1,   4,   5,   7,   9,  12,  13,  15, 144, 145, 146, 147, 148, 149, 150, 151
 152, 153, 154, 155, 156, 157, 158, 159, 160, 161, 298, 299, 300, 301, 302, 303
 304, 305, 306, 307, 308, 309, 310, 311, 312, 313, 314, 315, 316, 317, 318, 319
 320, 321, 322, 323, 324, 325, 326, 327, 328, 329, 330, 331, 332, 333, 334, 335
 336, 337, 338, 339, 340, 341, 342, 343, 344, 345, 503, 504, 505, 506, 507, 508
 509, 510, 511, 648, 649, 650, 651, 652, 653, 654, 655, 656, 657, 658, 659, 660
 661, 662, 663, 664, 665
*Nset, nset=SOIL_RIGHTNODES
  13,  14, 512, 513, 514, 515, 516, 517, 518, 519, 520, 521, 522, 523, 524, 525
 526, 527, 528, 529, 530, 531, 532, 533, 534, 535, 536, 537, 538, 539, 540, 541
 542, 543, 544, 545, 546, 547, 548, 549, 550, 551, 552, 553, 554, 555, 556, 557
 558, 559, 560, 561, 562, 563, 564, 565, 566, 567, 568, 569, 570
*Nset, nset=SOIL_LEFTNODES
   3,   4,  85,  86,  87,  88,  89,  90,  91,  92,  93,  94,  95,  96,  97,  98
  99, 100, 101, 102, 103, 104, 105, 106, 107, 108, 109, 110, 111, 112, 113, 114
 115, 116, 117, 118, 119, 120, 121, 122, 123, 124, 125, 126, 127, 128, 129, 130
 131, 132, 133, 134, 135, 136, 137, 138, 139, 140, 141, 142, 143
*Nset, nset=S-F_NODES, generate
 416,  432,    1
*Elset, elset=_SURF-S-F_S4, internal, generate
 2521,  3421,    60
*Nset, nset=_PickedSet10, internal
  3, 14
*Nset, nset=_PickedSet11, internal
  85, 570
*Nset, nset=_PickedSet12, internal
  86, 569
*Nset, nset=_PickedSet13, internal
  87, 568
*Nset, nset=_PickedSet14, internal
  88, 567
*Nset, nset=_PickedSet15, internal
  89, 566
*Nset, nset=_PickedSet16, internal
  90, 565
*Nset, nset=_PickedSet17, internal
  91, 564
*Nset, nset=_PickedSet18, internal
  92, 563
*Nset, nset=_PickedSet19, internal
  93, 562
*Nset, nset=_PickedSet20, internal
  94, 561
*Nset, nset=_PickedSet21, internal
  95, 560
*Nset, nset=_PickedSet22, internal
  96, 559
*Nset, nset=_PickedSet23, internal
  97, 558
*Nset, nset=_PickedSet24, internal
  98, 557
*Nset, nset=_PickedSet25, internal
  99, 556
*Nset, nset=_PickedSet26, internal
 100, 555
*Nset, nset=_PickedSet27, internal
 101, 554
*Nset, nset=_PickedSet28, internal
 102, 553
*Nset, nset=_PickedSet29, internal
** ... 81 like lines cut
*Surface, type=ELEMENT, name=SURF-S-F
_SURF-S-F_S4, S4
** Section: Section-3-SET-1
*Solid Section, elset=SET-1, material=SOIL
,
*Dashpot, elset=Dashpots-dashpot
1
16.4
*Element, type=Dashpot1, elset=Dashpots-dashpot
6001, 3
6002, 14
*Dashpot, elset=Springs/Dashpots-2-dashpot
2
39.7
*Element, type=Dashpot1, elset=Springs/Dashpots-2-dashpot
6003, 85
6004, 570
*Dashpot, elset=Springs/Dashpots-3-dashpot
2
44.5
*Element, type=Dashpot1, elset=Springs/Dashpots-3-dashpot
6005, 86
6006, 569
*Dashpot, elset=Springs/Dashpots-4-dashpot
1
49.3
*Element, type=Dashpot1, elset=Springs/Dashpots-4-dashpot
6007, 87
6008, 568
*Dashpot, elset=Springs/Dashpots-5-dashpot
1
53.6
*Element, type=Dashpot1, elset=Springs/Dashpots-5-dashpot
6009, 88
6010, 567
*Dashpot, elset=Springs/Dashpots-6-dashpot
1
57.8
*Element, type=Dashpot1, elset=Springs/Dashpots-6-dashpot
6011, 89
6012, 566
*Dashpot, elset=Springs/Dashpots-7-dashpot
1
61.5
*Element, type=Dashpot1, elset=Springs/Dashpots-7-dashpot
6013, 90
6014, 565
*Dashpot, elset=Springs/Dashpots-8-dashpot
1
65.
*Element, type=Dashpot1, elset=Springs/Dashpots-8-dashpot
6015, 91
6016, 564
*Dashpot, elset=Springs/Dashpots-9-dashpot
1
68.4
*Element, type=Dashpot1, elset=Springs/Dashpots-9-dashpot
6017, 92
6018, 563
*Dashpot, elset=Springs/Dashpots-10-dashpot
1
71.6
*Element, type=Dashpot1, elset=Springs/Dashpots-10-dashpot
6019, 93
6020, 562
*Dashpot, elset=Springs/Dashpots-11-dashpot
1
75.
*Element, type=Dashpot1, elset=Springs/Dashpots-11-dashpot
6021, 94
6022, 561
*Dashpot, elset=Springs/Dashpots-12-dashpot
1
77.6
*Element, type=Dashpot1, elset=Springs/Dashpots-12-dashpot
6023, 95
6024, 560
*Dashpot, elset=Springs/Dashpots-13-dashpot
1
80.5
*Element, type=Dashpot1, elset=Springs/Dashpots-13-dashpot
6025, 96
6026, 559
*Dashpot, elset=Springs/Dashpots-14-dashpot
1
83.
*Element, type=Dashpot1, elset=Springs/Dashpots-14-dashpot
6027, 97
6028, 558
*Dashpot, elset=Springs/Dashpots-15-dashpot
1
86.
*Element, type=Dashpot1, elset=Springs/Dashpots-15-dashpot
6029, 98
6030, 557
*Dashpot, elset=Springs/Dashpots-16-dashpot
1
88.5
*Element, type=Dashpot1, elset=Springs/Dashpots-16-dashpot
6031, 99
6032, 556
*Dashpot, elset=Springs/Dashpots-17-dashpot
1
91.
*Element, type=Dashpot1, elset=Springs/Dashpots-17-dashpot
6033, 100
6034, 555
*Dashpot, elset=Springs/Dashpots-18-dashpot
1
93.4
*Element, type=Dashpot1, elset=Springs/Dashpots-18-dashpot
6035, 101
6036, 554
*Dashpot, elset=Springs/Dashpots-19-dashpot
1
96.
*Element, type=Dashpot1, elset=Springs/Dashpots-19-dashpot
6037, 102
6038, 553
*Dashpot, elset=Springs/Dashpots-20-dashpot
1
98.
*Element, type=Dashpot1, elset=Springs/Dashpots-20-dashpot
6039, 103
6040, 552
*Dashpot, elset=Springs/Dashpots-21-dashpot
1
100.4
*Element, type=Dashpot1, elset=Springs/Dashpots-21-dashpot
6041, 104
6042, 551
*Dashpot, elset=Springs/Dashpots-22-dashpot
1
102.6
*Element, type=Dashpot1, elset=Springs/Dashpots-22-dashpot
6043, 105
6044, 550
*Dashpot, elset=Springs/Dashpots-23-dashpot
1
104.8
*Element, type=Dashpot1, elset=Springs/Dashpots-23-dashpot
6045, 106
6046, 549
*Dashpot, elset=Springs/Dashpots-24-dashpot
1
107.
*Element, type=Dashpot1, elset=Springs/Dashpots-24-dashpot
6047, 107
6048, 548
*Dashpot, elset=Springs/Dashpots-25-dashpot
1
109.
*Element, type=Dashpot1, elset=Springs/Dashpots-25-dashpot
6049, 108
6050, 547
*Dashpot, elset=Springs/Dashpots-26-dashpot
1
111.
*Element, type=Dashpot1, elset=Springs/Dashpots-26-dashpot
6051, 109
6052, 546
*Dashpot, elset=Springs/Dashpots-27-dashpot
1
113.
*Element, type=Dashpot1, elset=Springs/Dashpots-27-dashpot
6053, 110
6054, 545
*Dashpot, elset=Springs/Dashpots-28-dashpot
1
115.
*Element, type=Dashpot1, elset=Springs/Dashpots-28-dashpot
6055, 111
6056, 544
*Dashpot, elset=Springs/Dashpots-29-dashpot
1
117.
*Element, type=Dashpot1, elset=Springs/Dashpots-29-dashpot
6057, 112
6058, 543
*Dashpot, elset=Springs/Dashpots-30-dashpot
1
119.
*Element, type=Dashpot1, elset=Springs/Dashpots-30-dashpot
6059, 113
6060, 542
*Dashpot, elset=Springs/Dashpots-31-dashpot
1
120.7
*Element, type=Dashpot1, elset=Springs/Dashpots-31-dashpot
6061, 114
6062, 541
*Dashpot, elset=Springs/Dashpots-32-dashpot
1
122.6
*Element, type=Dashpot1, elset=Springs/Dashpots-32-dashpot
6063, 115
6064, 540
*Dashpot, elset=Springs/Dashpots-33-dashpot
1
124.4
*Element, type=Dashpot1, elset=Springs/Dashpots-33-dashpot
6065, 116
6066, 539
*Dashpot, elset=Springs/Dashpots-34-dashpot
1
126.2
*Element, type=Dashpot1, elset=Springs/Dashpots-34-dashpot
6067, 117
6068, 538
*Dashpot, elset=Springs/Dashpots-35-dashpot
1
128.
*Element, type=Dashpot1, elset=Springs/Dashpots-35-dashpot
6069, 118
6070, 537
*Dashpot, elset=Springs/Dashpots-36-dashpot
1
129.7
*Element, type=Dashpot1, elset=Springs/Dashpots-36-dashpot
6071, 119
6072, 536
*Dashpot, elset=Springs/Dashpots-37-dashpot
1
131.4
*Element, type=Dashpot1, elset=Springs/Dashpots-37-dashpot
6073, 120
6074, 535
*Dashpot, elset=Springs/Dashpots-38-dashpot
1
133.
*Element, type=Dashpot1, elset=Springs/Dashpots-38-dashpot
6075, 121
6076, 534
*Dashpot, elset=Springs/Dashpots-39-dashpot
1
134.8
*Element, type=Dashpot1, elset=Springs/Dashpots-39-dashpot
6077, 122
6078, 533
*Dashpot, elset=Springs/Dashpots-40-dashpot
1
136.5
*Element, type=Dashpot1, elset=Springs/Dashpots-40-dashpot
6079, 123
6080, 532
*Dashpot, elset=Springs/Dashpots-41-dashpot
1
138.1
*Element, type=Dashpot1, elset=Springs/Dashpots-41-dashpot
6081, 124
6082, 531
*Dashpot, elset=Springs/Dashpots-42-dashpot
1
139.7
*Element, type=Dashpot1, elset=Springs/Dashpots-42-dashpot
6083, 125
6084, 530
*Dashpot, elset=Springs/Dashpots-43-dashpot
1
141.4
*Element, type=Dashpot1, elset=Springs/Dashpots-43-dashpot
6085, 126
6086, 529
*Dashpot, elset=Springs/Dashpots-44-dashpot
1
143.
*Element, type=Dashpot1, elset=Springs/Dashpots-44-dashpot
6087, 127
6088, 528
*Dashpot, elset=Springs/Dashpots-45-dashpot
1
144.5
*Element, type=Dashpot1, elset=Springs/Dashpots-45-dashpot
6089, 128
6090, 527
*Dashpot, elset=Springs/Dashpots-46-dashpot
1
146.
*Element, type=Dashpot1, elset=Springs/Dashpots-46-dashpot
6091, 129
6092, 526
*Dashpot, elset=Springs/Dashpots-47-dashpot
1
147.6
*Element, type=Dashpot1, elset=Springs/Dashpots-47-dashpot
6093, 130
6094, 525
*Dashpot, elset=Springs/Dashpots-48-dashpot
1
149.1
*Element, type=Dashpot1, elset=Springs/Dashpots-48-dashpot
6095, 131
6096, 524
*Dashpot, elset=Springs/Dashpots-49-dashpot
1
150.6
*Element, type=Dashpot1, elset=Springs/Dashpots-49-dashpot
6097, 132
6098, 523
*Dashpot, elset=Springs/Dashpots-50-dashpot
1
152.
*Element, type=Dashpot1, elset=Springs/Dashpots-50-dashpot
6099, 133
6100, 522
*Dashpot, elset=Springs/Dashpots-51-dashpot
1
153.6
*Element, type=Dashpot1, elset=Springs/Dashpots-51-dashpot
6101, 134
6102, 521
*Dashpot, elset=Springs/Dashpots-52-dashpot
1
155.
*Element, type=Dashpot1, elset=Springs/Dashpots-52-dashpot
6103, 135
6104, 520
*Dashpot, elset=Springs/Dashpots-53-dashpot
1
156.5
*Element, type=Dashpot1, elset=Springs/Dashpots-53-dashpot
6105, 136
6106, 519
*Dashpot, elset=Springs/Dashpots-54-dashpot
1
158.
*Element, type=Dashpot1, elset=Springs/Dashpots-54-dashpot
6107, 137
6108, 518
*Dashpot, elset=Springs/Dashpots-55-dashpot
1
159.
*Element, type=Dashpot1, elset=Springs/Dashpots-55-dashpot
6109, 138
6110, 517
*Dashpot, elset=Springs/Dashpots-56-dashpot
1
160.7
*Element, type=Dashpot1, elset=Springs/Dashpots-56-dashpot
6111, 139
6112, 516
*Dashpot, elset=Springs/Dashpots-57-dashpot
1
160.7
*Element, type=Dashpot1, elset=Springs/Dashpots-57-dashpot
6113, 140
6114, 515
*Dashpot, elset=Springs/Dashpots-58-dashpot
1
162.1
*Element, type=Dashpot1, elset=Springs/Dashpots-58-dashpot
6115, 141
6116, 514
*Dashpot, elset=Springs/Dashpots-59-dashpot
1
163.5
*Element, type=Dashpot1, elset=Springs/Dashpots-59-dashpot
6117, 142
6118, 513
*Dashpot, elset=Springs/Dashpots-60-dashpot
1
164.9
*Element, type=Dashpot1, elset=Springs/Dashpots-60-dashpot
6119, 143
6120, 512
*End Part
**  
**
** ASSEMBLY
**
*Assembly, name=Assembly
**  
*Instance, name=FOOTING-1, part=FOOTING
        48.5,         31.5,           0.
*End Instance
**  
*Instance, name=PIER-1, part=PIER
         30.,         33.5,           0.
*End Instance
**  
*Instance, name=SOIL-1, part=SOIL
         32.,           0.,           0.
*End Instance
**  
*MPC
BEAM, SOIL-1.14, SOIL-1.3
BEAM, SOIL-1.570, SOIL-1.85
BEAM, SOIL-1.569, SOIL-1.86
BEAM, SOIL-1.568, SOIL-1.87
BEAM, SOIL-1.567, SOIL-1.88
BEAM, SOIL-1.566, SOIL-1.89
BEAM, SOIL-1.565, SOIL-1.90
BEAM, SOIL-1.564, SOIL-1.91
BEAM, SOIL-1.563, SOIL-1.92
BEAM, SOIL-1.562, SOIL-1.93
BEAM, SOIL-1.561, SOIL-1.94
BEAM, SOIL-1.560, SOIL-1.95
BEAM, SOIL-1.559, SOIL-1.96
BEAM, SOIL-1.558, SOIL-1.97
BEAM, SOIL-1.557, SOIL-1.98
BEAM, SOIL-1.556, SOIL-1.99
BEAM, SOIL-1.555, SOIL-1.100
BEAM, SOIL-1.554, SOIL-1.101
BEAM, SOIL-1.553, SOIL-1.102
BEAM, SOIL-1.552, SOIL-1.103
** ... 40 like lines cut
*Nset, nset=M_SET-2, instance=FOOTING-1
 35,
*Nset, nset=SET-5, instance=FOOTING-1
 35,
*Nset, nset=WIRE-2-SET-1, instance=SOIL-1
   3,  14,  85,  86,  87,  88,  89,  90,  91,  92,  93,  94,  95,  96,  97,  98
  99, 100, 101, 102, 103, 104, 105, 106, 107, 108, 109, 110, 111, 112, 113, 114
 115, 116, 117, 118, 119, 120, 121, 122, 123, 124, 125, 126, 127, 128, 129, 130
 131, 132, 133, 134, 135, 136, 137, 138, 139, 140, 141, 142, 143, 512, 513, 514
 515, 516, 517, 518, 519, 520, 521, 522, 523, 524, 525, 526, 527, 528, 529, 530
 531, 532, 533, 534, 535, 536, 537, 538, 539, 540, 541, 542, 543, 544, 545, 546
 547, 548, 549, 550, 551, 552, 553, 554, 555, 556, 557, 558, 559, 560, 561, 562
 563, 564, 565, 566, 567, 568, 569, 570
*Nset, nset=M_SET-2_CNS_, internal, instance=FOOTING-1
 35,
*Nset, nset=M_SET-2_CNS__CNS_, internal, instance=FOOTING-1
 35,
*Nset, nset=PIER-1_SET-3_CNS_, internal, instance=PIER-1
 12,
*Nset, nset=SET-5_CNS_, internal, instance=FOOTING-1
 35,
*Nset, nset=_PICKEDSET13, internal, instance=FOOTING-1
 35,
*Nset, nset=_PICKEDSET17, internal, instance=FOOTING-1
 35,
*Nset, nset=_PickedSet18, internal, instance=FOOTING-1
 35,
*Surface, type=NODE, name=SET-5_CNS__CNS_, internal
SET-5_CNS_, 1.
*Surface, type=NODE, name=PIER-1_SET-3_CNS__CNS_, internal
PIER-1_SET-3_CNS_, 1.
*Surface, type=NODE, name=M_SET-2_CNS__CNS__CNS_, internal
M_SET-2_CNS__CNS_, 1.
** Constraint: CONSTRAINT-3-1
*Tie, name=CONSTRAINT-3-1, adjust=yes
PIER-1_SET-3_CNS__CNS_, SET-5_CNS__CNS_
** Constraint: P-RIGIDBODY-1-1
*Tie, name=P-RIGIDBODY-1-1, adjust=yes, position tolerance=10.
PIER-1.SURF-PIER, M_SET-2_CNS__CNS__CNS_
** Constraint: RigidBody-1
*Rigid Body, ref node=_PickedSet18, elset=FOOTING-1.FOOTING, position=CENTER OF MASS
*End Assembly
*Amplitude, name=EQ
             0.,          0.0072,           0.005,          0.0062,            0.01,          0.0046,           0.015,          0.0028
           0.02,         -0.0002,           0.025,         -0.0016,            0.03,         -0.0002,           0.035,          0.0024
           0.04,          0.0056,           0.045,           0.008,            0.05,          0.0084,           0.055,           0.007
           0.06,           0.005,           0.065,          0.0028,            0.07,           0.001,           0.075,          0.0002
           0.08,          0.0004,           0.085,          0.0018,            0.09,          0.0034,           0.095,          0.0052
            0.1,           0.006,           0.105,          0.0066,            0.11,          0.0062,           0.115,          0.0046
           0.12,          0.0032,           0.125,          0.0016,            0.13,          0.0014,           0.135,          0.0032
           0.14,          0.0054,           0.145,          0.0068,            0.15,          0.0068,           0.155,           0.006
           0.16,           0.004,           0.165,          0.0008,            0.17,         -0.0002,           0.175,          0.0022
           0.18,          0.0044,           0.185,          0.0068,            0.19,          0.0086,           0.195,           0.007
            0.2,          0.0028,           0.205,         -0.0038,            0.21,         -0.0096,           0.215,         -0.0104
           0.22,          -0.003,           0.225,           0.013,            0.23,          0.0318,           0.235,          0.0434
           0.24,          0.0426,           0.245,          0.0286,            0.25,          0.0008,           0.255,         -0.0314
           0.26,         -0.0548,           0.265,         -0.0592,            0.27,         -0.0408,           0.275,         -0.0104
           0.28,          0.0186,           0.285,          0.0416,            0.29,          0.0532,           0.295,          0.0492
            0.3,          0.0342,           0.305,           0.016,            0.31,         -0.0048,           0.315,           -0.02
           0.32,         -0.0272,           0.325,         -0.0258,            0.33,          -0.012,           0.335,          0.0038
           0.34,           0.017,           0.345,          0.0272,            0.35,          0.0274,           0.355,          0.0184
           0.36,          0.0084,           0.365,          -0.002,            0.37,         -0.0132,           0.375,         -0.0212
           0.38,         -0.0216,           0.385,         -0.0114,            0.39,          0.0068,           0.395,          0.0236
** ... 481 like lines cut
** 
** MATERIALS
** 
*Material, name=FOOTING
*Density
2.,
*Elastic
 1e+07, 0.3
*Material, name=PIER
*Density
2.,
*Elastic
 1e+07, 0.3
*Material, name=SOIL
*Damping, beta=0.00173
*Density
 1.8,
*Depvar
      2,
*Elastic, dependencies=2
  7080.,   0.48, ,     0.,     0.
  7080.,   0.48, ,     0.,  7080.
 10040.,   0.48, ,     0., 10040.
 13000.,   0.48, ,     0., 13000.
 15960.,   0.48, ,     0., 15960.
 18920.,   0.48, ,     0., 18920.
 21880.,   0.48, ,     0., 21880.
 24840.,   0.48, ,     0., 24840.
 27800.,   0.48, ,     0., 27800.
 30760.,   0.48, ,     0., 30760.
 33720.,   0.48, ,     0., 33720.
 36680.,   0.48, ,     0., 36680.
 39640.,   0.48, ,     0., 39640.
 42600.,   0.48, ,     0., 42600.
 45560.,   0.48, ,     0., 45560.
 48520.,   0.48, ,     0., 48520.
 51480.,   0.48, ,     0., 51480.
 54440.,   0.48, ,     0., 54440.
 57400.,   0.48, ,     0., 57400.
 60360.,   0.48, ,     0., 60360.
** ... 41 like lines cut
*Plastic, dependencies=2, hardening=COMBINED, datatype=PARAMETERS, number backstresses=1
  0.61,  7080.,  1283., ,     0.,     0.
  0.61,  7080.,  1283., ,     0.,   3.54
  0.87, 10040.,  1283., ,     0.,   5.02
  1.13, 13000.,  1283., ,     0.,    6.5
  1.38, 15960.,  1283., ,     0.,   7.98
  1.64, 18920.,  1283., ,     0.,   9.46
  1.89, 21880.,  1283., ,     0.,  10.94
  2.15, 24840.,  1283., ,     0.,  12.42
  2.41, 27800.,  1283., ,     0.,   13.9
  2.66, 30760.,  1283., ,     0.,  15.38
  2.92, 33720.,  1283., ,     0.,  16.86
  3.18, 36680.,  1283., ,     0.,  18.34
  3.43, 39640.,  1283., ,     0.,  19.82
  3.69, 42600.,  1283., ,     0.,   21.3
  3.95, 45560.,  1283., ,     0.,  22.78
   4.2, 48520.,  1283., ,     0.,  24.26
  4.46, 51480.,  1283., ,     0.,  25.74
  4.71, 54440.,  1283., ,     0.,  27.22
  4.97, 57400.,  1283., ,     0.,   28.7
  5.23, 60360.,  1283., ,     0.,  30.18
** ... 41 like lines cut
*User Defined Field
** 
** INTERACTION PROPERTIES
** 
*Surface Interaction, name=NT_EXPO
1.,
*Friction, slip tolerance=0.001, taumax=5.
 0.9,
*Surface Behavior, pressure-overclosure=EXPONENTIAL
1e-05, 10.
** 
** INTERACTIONS
** 
** Interaction: NT_EXPO-1
*Contact Pair, interaction=NT_EXPO, small sliding, type=SURFACE TO SURFACE, adjust=0.001
SOIL-1.SURF-S-F, FOOTING-1.SURF-FOOTINGBOT
** ----------------------------------------------------------------
** 
** STEP: Gravity
** 
*Step, name=Gravity, nlgeom=NO, inc=100000
Grav
*Static
0.01, 1., 1e-05, 0.01
** 
** BOUNDARY CONDITIONS
** 
** Name: Disp-BC-1 Type: Displacement/Rotation
*Boundary
SOIL-1.SOIL_BOTNODES, 1, 1
** Name: Disp-BC-2 Type: Displacement/Rotation
*Boundary
SOIL-1.SOIL_BOTNODES, 2, 2
** Name: Disp-BC-3 Type: Displacement/Rotation
*Boundary
SOIL-1.SOIL_BOTNODES, 6, 6
** Name: Disp-BC-4 Type: Displacement/Rotation
*Boundary
SET-5, 1, 1
** 
** LOADS
** 
** Name: GRAVITY-1   Type: Gravity
*Dload
SOIL-1.SET-1, GRAV, 9.81, 0., -1.
** 
** INTERACTIONS
** 
** Interaction: NT_EXPO-1
*Model Change, type=CONTACT PAIR, remove
SOIL-1.SURF-S-F, FOOTING-1.SURF-FOOTINGBOT
** 
** OUTPUT REQUESTS
** 
*Restart, write, frequency=0
** 
** FIELD OUTPUT: F-Output-1
** 
*Output, field, variable=PRESELECT
** 
** HISTORY OUTPUT: H-Output-1
** 
*Output, history, variable=PRESELECT
*End Step
** ----------------------------------------------------------------
** 
** STEP: Self_weight
** 
*Step, name=Self_weight, nlgeom=NO, inc=100000
Self_weight
*Static
0.01, 1., 1e-05, 0.01
** 
** LOADS
** 
** Name: CFORCE-1   Type: Concentrated force
*Cload
SET-5, 2, -50.
** Name: GRAVITY-1   Type: Gravity
*Dload, op=NEW
** 
** INTERACTIONS
** 
** Interaction: NT_EXPO-1
*Model Change, type=CONTACT PAIR, add
SOIL-1.SURF-S-F, FOOTING-1.SURF-FOOTINGBOT
** 
** OUTPUT REQUESTS
** 
*Restart, write, frequency=0
** 
** FIELD OUTPUT: F-Output-2
** 
*Output, field, variable=PRESELECT
** 
** HISTORY OUTPUT: H-Output-2
** 
*Output, history, variable=PRESELECT
*End Step
** ----------------------------------------------------------------
** 
** STEP: Dynamic
** 
*Step, name=Dynamic, nlgeom=NO, inc=1000000
*Dynamic,alpha=0.
0.001,10.,0.0001
** 
** BOUNDARY CONDITIONS
** 
** Name: Acc-BC-1 Type: Acceleration/Angular acceleration
*Boundary, op=NEW, amplitude=EQ, type=ACCELERATION
SOIL-1.SOIL_BOTNODES, 1, 1, 9.81
** Name: Disp-BC-1 Type: Displacement/Rotation
*Boundary, op=NEW
** Name: Disp-BC-2 Type: Displacement/Rotation
*Boundary, op=NEW
** Name: Disp-BC-3 Type: Displacement/Rotation
*Boundary, op=NEW
** Name: Disp-BC-4 Type: Displacement/Rotation
*Boundary, op=NEW
** Name: Disp-BC-5 Type: Displacement/Rotation
*Boundary, op=NEW
SOIL-1.SOIL_BOTNODES, 2, 2
** Name: Disp-BC-6 Type: Displacement/Rotation
*Boundary, op=NEW
SET-5, 1, 1
** 
** OUTPUT REQUESTS
** 
*Restart, write, frequency=0
** 
** FIELD OUTPUT: F-Output-3
** 
*Output, field, variable=PRESELECT, frequency=1
** 
** HISTORY OUTPUT: H-Output-3
** 
*Output, history, variable=PRESELECT, frequency=1
*End Step
