*Heading
** Job name: NewMesh_INF Model name: NewMesh_inf
** Generated by: Abaqus/CAE 6.14-1
*Preprint, echo=NO, model=NO, history=NO, contact=NO
**
** PARTS
**
*Part, name=FND
*Node
      1,          -8.,          -2.
      2,         -8.5,          -2.
      3,          -9.,          -2.
      4,         -9.5,          -2.
      5,         -10.,          -2.
      6,        -10.5,          -2.
      7,         -11.,          -2.
      8,          -8.,         -2.5
      9,         -8.5,         -2.5
     10,          -9.,         -2.5
     11,         -9.5,         -2.5
     12,         -10.,         -2.5
     13,        -10.5,         -2.5
     14,         -11.,         -2.5
     15,          -8.,          -3.
     16,         -8.5,          -3.
     17,          -9.,          -3.
     18,         -9.5,          -3.
     19,         -10.,          -3.
     20,        -10.5,          -3.
** ... 20 like lines cut
*Element, type=CPE4R
 1,  1, 22, 23,  8
 2,  2, 24, 25,  9
 3,  3, 26, 27, 10
 4,  4, 28, 29, 11
 5,  5, 30, 31, 12
 6,  6, 32, 33, 13
 7,  8, 23, 35, 15
 8,  9, 25, 37, 16
 9, 10, 27, 39, 17
10, 11, 29, 41, 18
11, 12, 31, 43, 19
12, 13, 33, 45, 20
13, 22,  2,  9, 23
14, 24,  3, 10, 25
15, 26,  4, 11, 27
16, 28,  5, 12, 29
17, 30,  6, 13, 31
18, 32,  7, 14, 33
19, 23,  9, 16, 35
20, 25, 10, 17, 37
** ... 4 like lines cut
*Nset, nset=FND-REFPT_, internal
 46,
*Nset, nset=CORNERS
 15, 21
*Nset, nset=MD
 11,
*Elset, elset=_BOT_F_S3, internal
  7,  8,  9, 10, 11, 12, 19, 20, 21, 22, 23, 24
*Nset, nset=BOT_NODES
 15, 16, 17, 18, 19, 20, 21, 35, 37, 39, 41, 43, 45
*Nset, nset=WHOLE_FND
  1,  2,  3,  4,  5,  6,  7,  8,  9, 10, 11, 12, 13, 14, 15, 16
 17, 18, 19, 20, 21, 22, 23, 24, 25, 26, 27, 28, 29, 30, 31, 32
 33, 35, 37, 39, 41, 43, 45
*Elset, elset=WHOLE_FND, generate
  1,  24,   1
*Surface, type=ELEMENT, name=BOT_F
_BOT_F_S3, S3
** Section: Section-1-WHOLE_FND
*Solid Section, elset=WHOLE_FND, material=FOUNDATION
,
*End Part
**  
*Part, name=MASS
*Node
      1,           0.,           1.
      2,           0.,           1.
*Nset, nset=MASS-REFPT_, internal
 1, 2
*Nset, nset=MASS
 1,
*Nset, nset=_PICKEDSET5, internal
 1,
*Nset, nset=_PICKEDSET6, internal
 1,
*Nset, nset=_PickedSet8, internal
 1,
*Element, type=MASS, elset=_PickedSet8_MASS_MASS__
1, 1
*Mass, elset=_PickedSet8_MASS_MASS__
1e+08, 
*End Part
**  
*Part, name=PIER
*Node
      1,           0.,         -1.5
      2,           0.,         -5.5
      3,           0.,         -3.5
*Element, type=B21
1, 1, 2
*Nset, nset=PIER-REFPT_, internal
 3,
*Nset, nset=PIER
 1, 2
*Elset, elset=PIER
 1,
** Section: Section-2-PIER  Profile: Profile-1
*Beam Section, elset=PIER, material=PIER, poisson = 0.33, temperature=GRADIENTS, section=RECT
1., 1.
0.,0.,-1.
*End Part
**  
*Part, name=SOIL
*Node
      1,          60.,          18.
      2,          60.,           0.
      3,          70.,           0.
      4,          70.,          18.
      5,          60.,          20.
      6,          70.,          20.
      7,         46.5,          18.
      8,         46.5,           0.
      9,         46.5,          20.
     10,         41.5,          18.
     11,         41.5,           0.
     12,         41.5,          20.
     13,         38.5,          18.
     14,         38.5,           0.
     15,         38.5,          20.
     16,         33.5,          18.
     17,         33.5,           0.
     18,         33.5,          20.
     19,          20.,          18.
     20,          20.,           0.
** ... 1429 like lines cut
*Element, type=CINPE4
 1,  1, 25, 58,  4
 2, 25, 26, 57, 58
 3, 26, 27, 56, 57
 4, 27, 28, 55, 56
 5, 28, 29, 54, 55
 6, 29, 30, 53, 54
 7, 30, 31, 52, 53
 8, 31, 32, 51, 52
 9, 32, 33, 50, 51
10, 33, 34, 49, 50
11, 34, 35, 48, 49
12, 35, 36, 47, 48
13, 36, 37, 46, 47
14, 37, 38, 45, 46
15, 38, 39, 44, 45
16, 39, 40, 43, 44
17, 40, 41, 42, 43
18, 41,  2,  3, 42
19,  5, 59, 64,  6
20, 59, 60, 63, 64
** ... 24 like lines cut
*Element, type=CPE4R
  23,    7,   65,  350,  107
  24,   65,   66,  351,  350
  25,   66,   67,  352,  351
  26,   67,   68,  353,  352
  27,   68,   69,  354,  353
  28,   69,   70,  355,  354
  29,   70,   71,  356,  355
  30,   71,   72,  357,  356
  31,   72,   73,  358,  357
  32,   73,   74,  359,  358
  33,   74,   75,  360,  359
  34,   75,   76,  361,  360
  35,   76,   77,  362,  361
  36,   77,   78,  363,  362
  37,   78,   79,  364,  363
  38,   79,   80,  365,  364
  39,   80,   81,  366,  365
  40,   81,    8,   82,  366
  41,  107,  350,  367,  106
  42,  350,  351,  368,  367
** ... 1300 like lines cut
*Nset, nset=SET-17, generate
    1,  1449,     1
*Elset, elset=SET-17, generate
    1,  1364,     1
*Nset, nset=SOIL_F
  12,  15, 213, 214, 215, 216, 217, 218, 219, 220, 221, 222, 223
*Nset, nset=SOIL_ACC
   2,   8,  11,  14,  17,  20,  82,  83,  84,  85,  86,  87,  88,  89,  90,  91
  92,  93,  94, 141, 142, 143, 144, 145, 146, 147, 148, 149, 188, 189, 190, 191
 192, 193, 194, 195, 196, 197, 198, 241, 242, 243, 244, 245, 246, 247, 248, 249
 301, 302, 303, 304, 305, 306, 307, 308, 309, 310, 311, 312, 313
*Elset, elset=_SOIL_F_S4, internal, generate
 767,  811,    4
*Surface, type=ELEMENT, name=SOIL_F
_SOIL_F_S4, S4
** Section: Section-3-SET-17
*Solid Section, elset=SET-17, material=SOIL
,
*End Part
**  
**
** ASSEMBLY
**
*Assembly, name=Assembly
**  
*Instance, name=FND-1, part=FND
        27.5,          29.,           0.
*End Instance
**  
*Instance, name=PIER-1, part=PIER
         18.,         32.5,           0.
*End Instance
**  
*Instance, name=MASS-1, part=MASS
         18.,          30.,           0.
*End Instance
**  
*Instance, name=SOIL-1, part=SOIL
        -22.,           6.,           0.
*End Instance
**  
*Node
      1,          18.,          27.
*MPC
BEAM, SOIL-1.3, SOIL-1.22
BEAM, SOIL-1.42, SOIL-1.330
BEAM, SOIL-1.43, SOIL-1.329
BEAM, SOIL-1.44, SOIL-1.328
BEAM, SOIL-1.45, SOIL-1.327
BEAM, SOIL-1.46, SOIL-1.326
BEAM, SOIL-1.47, SOIL-1.325
BEAM, SOIL-1.48, SOIL-1.324
BEAM, SOIL-1.49, SOIL-1.323
BEAM, SOIL-1.50, SOIL-1.322
BEAM, SOIL-1.51, SOIL-1.321
BEAM, SOIL-1.52, SOIL-1.320
BEAM, SOIL-1.53, SOIL-1.319
BEAM, SOIL-1.54, SOIL-1.318
BEAM, SOIL-1.55, SOIL-1.317
BEAM, SOIL-1.56, SOIL-1.316
BEAM, SOIL-1.57, SOIL-1.315
BEAM, SOIL-1.58, SOIL-1.314
BEAM, SOIL-1.4, SOIL-1.21
BEAM, SOIL-1.62, SOIL-1.349
BEAM, SOIL-1.63, SOIL-1.348
BEAM, SOIL-1.64, SOIL-1.347
BEAM, SOIL-1.6, SOIL-1.24
*Nset, nset=M_TOPFND, instance=FND-1
  1,  2,  3,  4,  5,  6,  7, 22, 24, 26, 28, 30, 32, 46
*Nset, nset=M_TOPFND, instance=PIER-1
 2,
*Nset, nset=RP_F
 1,
*Nset, nset=S_SET-10, instance=PIER-1
 1, 2
*Nset, nset=S_SET-11, instance=PIER-1
 3,
*Nset, nset=Wire-1-Set-1, instance=SOIL-1
   3,   4,   6,  21,  22,  24,  42,  43,  44,  45,  46,  47,  48,  49,  50,  51
  52,  53,  54,  55,  56,  57,  58,  62,  63,  64, 314, 315, 316, 317, 318, 319
 320, 321, 322, 323, 324, 325, 326, 327, 328, 329, 330, 347, 348, 349
*Nset, nset=RP_F_CNS_, internal
 1,
*Nset, nset=RP_F_CNS__CNS_, internal
 1,
*Nset, nset=RP_F_CNS__CNS__CNS_, internal
 1,
*Nset, nset=SOIL-1_SOIL_F_CNS_, internal, instance=SOIL-1
  12,  15, 213, 214, 215, 216, 217, 218, 219, 220, 221, 222, 223
*Elset, elset=_M_SURF-1_S1, internal, instance=FND-1, generate
 1,  6,  1
*Elset, elset=_M_SURF-1_S1_1, internal, instance=FND-1
  1,  2,  3,  4,  5,  6, 13, 14, 15, 16, 17, 18
*Elset, elset=_M_SURF-1_S1_2, internal, instance=FND-1
  1,  2,  3,  4,  5,  6, 13, 14, 15, 16, 17, 18
*Elset, elset=_M_SURF-FNDTOP_S1, internal, instance=FND-1
  1,  2,  3,  4,  5,  6, 13, 14, 15, 16, 17, 18
*Nset, nset=_PICKEDSET30, internal
 1,
*Nset, nset=_PICKEDSET31, internal
 1,
*Nset, nset=_PICKEDSET34, internal
 1,
*Nset, nset=_PICKEDSET62, internal
 1,
*Nset, nset=_PickedSet35, internal
 1,
*Elset, elset=_S_PIER_SNEG, internal, instance=PIER-1
 1,
*Elset, elset=_S_SURF-3_SNEG, internal, instance=PIER-1
 1,
*Surface, type=ELEMENT, name=M_SURF-FNDTOP
_M_SURF-FNDTOP_S1, S1
*Surface, type=ELEMENT, name=S_PIER
_S_PIER_SNEG, SNEG
*Surface, type=NODE, name=SOIL-1_SOIL_F_CNS__CNS_, internal
SOIL-1_SOIL_F_CNS_, 1.
*Surface, type=NODE, name=RP_F_CNS_, internal
RP_F, 1.
** Constraint: F-P-1-1-1-1
*Tie, name=F-P-1-1-1-1, adjust=yes, position tolerance=10., no rotation, type=NODE TO SURFACE
S_PIER, RP_F_CNS_
** Constraint: M-F
*Coupling, constraint name=M-F, ref node=MASS-1.MASS, surface=M_SURF-FNDTOP
*Distributing, weighting method=UNIFORM, coupling=STRUCTURAL
** Constraint: RigidBody-1
*Rigid Body, ref node=_PickedSet35, elset=FND-1.WHOLE_FND, position=CENTER OF MASS
*End Assembly
*Amplitude, name=EQ
             0.,          0.0072,           0.005,          0.0062,            0.01,          0.0046,           0.015,          0.0028
           0.02,         -0.0002,           0.025,         -0.0016,            0.03,         -0.0002,           0.035,          0.0024
           0.04,          0.0056,           0.045,           0.008,            0.05,          0.0084,           0.055,           0.007
           0.06,           0.005,           0.065,          0.0028,            0.07,           0.001,           0.075,          0.0002
           0.08,          0.0004,           0.085,          0.0018,            0.09,          0.0034,           0.095,          0.0052
            0.1,           0.006,           0.105,          0.0066,            0.11,          0.0062,           0.115,          0.0046
           0.12,          0.0032,           0.125,          0.0016,            0.13,          0.0014,           0.135,          0.0032
           0.14,          0.0054,           0.145,          0.0068,            0.15,          0.0068,           0.155,           0.006
           0.16,           0.004,           0.165,          0.0008,            0.17,         -0.0002,           0.175,          0.0022
           0.18,          0.0044,           0.185,          0.0068,            0.19,          0.0086,           0.195,           0.007
            0.2,          0.0028,           0.205,         -0.0038,            0.21,         -0.0096,           0.215,         -0.0104
           0.22,          -0.003,           0.225,           0.013,            0.23,          0.0318,           0.235,          0.0434
           0.24,          0.0426,           0.245,          0.0286,            0.25,          0.0008,           0.255,         -0.0314
           0.26,         -0.0548,           0.265,         -0.0592,            0.27,         -0.0408,           0.275,         -0.0104
           0.28,          0.0186,           0.285,          0.0416,            0.29,          0.0532,           0.295,          0.0492
            0.3,          0.0342,           0.305,           0.016,            0.31,         -0.0048,           0.315,           -0.02
           0.32,         -0.0272,           0.325,         -0.0258,            0.33,          -0.012,           0.335,          0.0038
           0.34,           0.017,           0.345,          0.0272,            0.35,          0.0274,           0.355,          0.0184
           0.36,          0.0084,           0.365,          -0.002,            0.37,         -0.0132,           0.375,         -0.0212
           0.38,         -0.0216,           0.385,         -0.0114,            0.39,          0.0068,           0.395,          0.0236
** ... 481 like lines cut
** 
** MATERIALS
** 
*Material, name=FOUNDATION
*Density
 2.1,
*Elastic
 2e+06, 0.3
*Plastic
2200.,0.
*Material, name=MASS
*Density
3.,
*Material, name=PIER
*Density
 0.1,
*Elastic
 2e+10, 0.33
*Material, name=SOIL
*Damping, beta=0.0017
*Density
 1.8,
*Depvar
      2,
*Elastic, dependencies=2
  8560.,   0.48, ,     0.,     0.
  8560.,   0.48, ,     0.,  8560.
 14480.,   0.48, ,     0., 14480.
 20400.,   0.48, ,     0., 20400.
 26320.,   0.48, ,     0., 26320.
 32240.,   0.48, ,     0., 32240.
 38160.,   0.48, ,     0., 38160.
 44080.,   0.48, ,     0., 44080.
 50000.,   0.48, ,     0., 50000.
 55920.,   0.48, ,     0., 55920.
 61840.,   0.48, ,     0., 61840.
 67760.,   0.48, ,     0., 67760.
 73680.,   0.48, ,     0., 73680.
 79600.,   0.48, ,     0., 79600.
 85520.,   0.48, ,     0., 85520.
 91440.,   0.48, ,     0., 91440.
 97360.,   0.48, ,     0., 97360.
103280.,   0.48, ,     0.,103280.
109200.,   0.48, ,     0.,109200.
115120.,   0.48, ,     0.,115120.
121040.,   0.48, ,     0.,121040.
126960.,   0.48, ,     0.,126960.
*Plastic, dependencies=2, hardening=COMBINED, datatype=PARAMETERS, number backstresses=1
  0.74,  8560.,  1283., ,     0.,     0.
  0.74,  8560.,  1283., ,     0.,   4.28
  1.25, 14480.,  1283., ,     0.,   7.24
  1.77, 20400.,  1283., ,     0.,   10.2
  2.28, 26320.,  1283., ,     0.,  13.16
  2.79, 32240.,  1283., ,     0.,  16.12
   3.3, 38160.,  1283., ,     0.,  19.08
  3.82, 44080.,  1283., ,     0.,  22.04
  4.33, 50000.,  1283., ,     0.,    25.
  4.84, 55920.,  1283., ,     0.,  27.96
  5.36, 61840.,  1283., ,     0.,  30.92
  5.87, 67760.,  1283., ,     0.,  33.88
  6.38, 73680.,  1283., ,     0.,  36.84
  6.89, 79600.,  1283., ,     0.,   39.8
  7.41, 85520.,  1283., ,     0.,  42.76
  7.92, 91440.,  1283., ,     0.,  45.72
  8.43, 97360.,  1283., ,     0.,  48.68
  8.94,103280.,  1283., ,     0.,  51.64
  9.46,109200.,  1283., ,     0.,   54.6
  9.97,115120.,  1283., ,     0.,  57.56
 10.48,121040.,  1283., ,     0.,  60.52
   11.,126960.,  1283., ,     0.,  63.48
*User Defined Field
** 
** INTERACTION PROPERTIES
** 
*Surface Interaction, name=COHESIVE
1.,
*Cohesive Behavior
0., 1e+08, 1e+08
** 
** INTERACTIONS
** 
** Interaction: COHESIVE-1
*Contact Pair, interaction=COHESIVE, small sliding, adjust=0.001
SOIL-1_SOIL_F_CNS__CNS_, FND-1.BOT_F
** ----------------------------------------------------------------
** 
** STEP: Step-1
** 
*Step, name=Step-1, nlgeom=NO, inc=1000000
Gravity
*Static
0.01, 1., 1e-09, 0.01
** 
** BOUNDARY CONDITIONS
** 
** Name: Disp-BC-3 Type: Displacement/Rotation
*Boundary
SOIL-1.SOIL_ACC, 2, 2
** Name: Disp-BC-4 Type: Displacement/Rotation
*Boundary
SOIL-1.SOIL_ACC, 2, 2
** Name: Disp-BC-5 Type: Displacement/Rotation
*Boundary
SOIL-1.SOIL_ACC, 6, 6
** Name: RB_disp Type: Displacement/Rotation
*Boundary
RP_F, 1, 1
** 
** LOADS
** 
** Name: CFORCE-1   Type: Concentrated force
*Cload
MASS-1.MASS, 1, 10.
** 
** OUTPUT REQUESTS
** 
*Restart, write, frequency=0
** 
** FIELD OUTPUT: F-Output-1
** 
*Output, field, variable=PRESELECT
** 
** HISTORY OUTPUT: H-Output-1
** 
*Output, history
*Contact Output
CDISP, CFS1, CFS2, CFS3, CFSM, CSTRESS
*End Step
** ----------------------------------------------------------------
** 
** STEP: Step-2
** 
*Step, name=Step-2, nlgeom=NO, inc=1000000
*Dynamic,alpha=0.
0.005,10.,0.005
** 
** BOUNDARY CONDITIONS
** 
** Name: Acc-BC-1 Type: Acceleration/Angular acceleration
*Boundary, op=NEW, amplitude=EQ, type=ACCELERATION
SOIL-1.SOIL_ACC, 1, 1, 1.
** Name: Disp-BC-3 Type: Displacement/Rotation
*Boundary, op=NEW
** Name: Disp-BC-4 Type: Displacement/Rotation
*Boundary, op=NEW
** Name: Disp-BC-5 Type: Displacement/Rotation
*Boundary, op=NEW
** Name: Disp-BC-8 Type: Displacement/Rotation
*Boundary, op=NEW
SOIL-1.SOIL_ACC, 2, 2
** Name: Disp-BC-9 Type: Displacement/Rotation
*Boundary, op=NEW
SOIL-1.SOIL_ACC, 2, 2
** Name: RB_disp Type: Displacement/Rotation
*Boundary, op=NEW
RP_F, 1, 1
** 
** LOADS
** 
** Name: CFORCE-1   Type: Concentrated force
*Cload, op=NEW
** 
** OUTPUT REQUESTS
** 
*Restart, write, frequency=0
** 
** FIELD OUTPUT: F-Output-2
** 
*Output, field, variable=PRESELECT, frequency=1
** 
** HISTORY OUTPUT: H-Output-2
** 
*Output, history, frequency=1
*Contact Output
CDISP, CFN1, CFN2, CFN3, CFNM, CSTRESS
*End Step
