1

   Abaqus 6.14-1                                  Date 03-May-2016   Time 11:40:39
   For use by Supplied By SSQ under license from Dassault Systemes or its subsidiary.

                                                                                 
 Force                                                                           
 STEP    1     INCREMENT     1     STEP TIME    0.00    


                        S T E P       1     D Y N A M I C   A N A L Y S I S - I M P L I C I T  I N T E G R A T I O N


          Force                                                                           

          DYNAMIC APPLICATION PACKED SCHEME IS                 MODERATE DISSIPATION
          HILBER-HUGHES-TAYLOR (HHT) TIME INTEGRATOR IS USED

     AUTOMATIC TIME CONTROL WITH -
          A SUGGESTED INITIAL TIME INCREMENT OF                5.000E-02
          AND A TOTAL TIME PERIOD OF                            10.0    
          THE MINIMUM TIME INCREMENT ALLOWED IS                5.000E-09
          THE MAXIMUM TIME INCREMENT ALLOWED IS                 1.00    

          THE HALF-INCREMENT RESIDUALS WILL NOT BE CALCULATED

          HILBER-HUGHES-TAYLOR METHOD PARAMETERS:  ALPHA   IS  -0.414214    
                                                   BETA    IS   0.500000    
                                                   GAMMA   IS   0.914214    
          CONTACT IMPACT/RELEASE COMPUTATIONS ARE SKIPPED
          AGGRESSIVE   TIME INCREMENTATION IS USED
          STEP AMPLITUDE IS                                    STEP

 CONVERGENCE TOLERANCE PARAMETERS FOR FORCE    
     CRITERION FOR RESIDUAL FORCE     FOR A NONLINEAR PROBLEM          5.000E-03
     CRITERION FOR DISP.    CORRECTION IN A NONLINEAR PROBLEM          1.000E-02
     INITIAL VALUE OF TIME AVERAGE FORCE                               1.000E-02
     AVERAGE FORCE     IS TIME AVERAGE FORCE    
     ALTERNATE CRIT. FOR RESIDUAL FORCE     FOR A NONLINEAR PROBLEM    2.000E-02
     CRITERION FOR ZERO FORCE     RELATIVE TO TIME AVRG. FORCE         1.000E-05
     CRITERION FOR RESIDUAL FORCE     WHEN THERE IS ZERO FLUX          1.000E-05
     CRITERION FOR DISP.    CORRECTION WHEN THERE IS ZERO FLUX         1.000E-03
     CRITERION FOR RESIDUAL FORCE     FOR A LINEAR INCREMENT           1.000E-08
     FIELD CONVERSION RATIO                                             1.00    
     CRITERION FOR ZERO FORCE     REL. TO TIME AVRG. MAX. FORCE        1.000E-05
     CRITERION FOR ZERO DISP.    RELATIVE TO CHARACTERISTIC LENGTH     1.000E-08

 CONVERGENCE TOLERANCE PARAMETERS FOR MOMENT   
     CRITERION FOR RESIDUAL MOMENT    FOR A NONLINEAR PROBLEM          5.000E-03
     CRITERION FOR ROTATION CORRECTION IN A NONLINEAR PROBLEM          1.000E-02
     INITIAL VALUE OF TIME AVERAGE MOMENT                              1.000E-02
     AVERAGE MOMENT    IS TIME AVERAGE MOMENT   
     ALTERNATE CRIT. FOR RESIDUAL MOMENT    FOR A NONLINEAR PROBLEM    2.000E-02
     CRITERION FOR ZERO MOMENT    RELATIVE TO TIME AVRG. MOMENT        1.000E-05
     CRITERION FOR RESIDUAL MOMENT    WHEN THERE IS ZERO FLUX          1.000E-05
     CRITERION FOR ROTATION CORRECTION WHEN THERE IS ZERO FLUX         1.000E-03
     CRITERION FOR RESIDUAL MOMENT    FOR A LINEAR INCREMENT           1.000E-08
     FIELD CONVERSION RATIO                                             1.00    
     CRITERION FOR ZERO MOMENT    REL. TO TIME AVRG. MAX. MOMENT       1.000E-05

     VOLUMETRIC STRAIN COMPATIBILITY TOLERANCE FOR HYBRID SOLIDS       1.000E-05
     AXIAL STRAIN COMPATIBILITY TOLERANCE FOR HYBRID BEAMS             1.000E-05
     TRANS. SHEAR STRAIN COMPATIBILITY TOLERANCE FOR HYBRID BEAMS      1.000E-05
     SOFT CONTACT CONSTRAINT COMPATIBILITY TOLERANCE FOR P>P0          5.000E-03
     SOFT CONTACT CONSTRAINT COMPATIBILITY TOLERANCE FOR P=0.0         0.100    
     CONTACT FORCE ERROR TOLERANCE FOR CONVERT SDI=YES                 1.00    
     DISPLACEMENT COMPATIBILITY TOLERANCE FOR DCOUP ELEMENTS           1.000E-05
     ROTATION COMPATIBILITY TOLERANCE FOR DCOUP ELEMENTS               1.000E-05

 EQUILIBRIUM WILL BE CHECKED FOR SEVERE DISCONTINUITY ITERATIONS

 TIME INCREMENTATION CONTROL PARAMETERS:
     FIRST EQUILIBRIUM ITERATION FOR CONSECUTIVE DIVERGENCE CHECK              4
     EQUILIBRIUM ITERATION AT WHICH LOG. CONVERGENCE RATE CHECK BEGINS         8
     EQUILIBRIUM ITERATION AFTER WHICH ALTERNATE RESIDUAL IS USED              9
     MAXIMUM EQUILIBRIUM ITERATIONS ALLOWED                                   16
     EQUILIBRIUM ITERATION COUNT FOR CUT-BACK IN NEXT INCREMENT               10
     MAXIMUM EQUILIB. ITERS IN TWO INCREMENTS FOR TIME INCREMENT INCREASE      4
     MAXIMUM ITERATIONS FOR SEVERE DISCONTINUITIES                            50
     MAXIMUM CUT-BACKS ALLOWED IN AN INCREMENT                                 5
     MAXIMUM DISCON. ITERS IN TWO INCREMENTS FOR TIME INCREMENT INCREASE      50
     MAXIMUM CONTACT AUGMENTATIONS FOR *SURFACE BEHAVIOR,AUGMENTED LAGRANGE   50
     CUT-BACK FACTOR AFTER DIVERGENCE                                 0.2500    
     CUT-BACK FACTOR FOR TOO SLOW CONVERGENCE                         0.5000    
     CUT-BACK FACTOR AFTER TOO MANY EQUILIBRIUM ITERATIONS            0.7500    
     CUT-BACK FACTOR AFTER TOO MANY SEVERE DISCONTINUITY ITERATIONS   0.2500    
     CUT-BACK FACTOR AFTER PROBLEMS IN ELEMENT ASSEMBLY               0.2500    
     INCREASE FACTOR AFTER TWO INCREMENTS THAT CONVERGE QUICKLY        1.500    
     MAX. TIME INCREMENT INCREASE FACTOR ALLOWED                       1.500    
     MAX. TIME INCREMENT INCREASE FACTOR ALLOWED (DYNAMICS)            1.250    
     MAX. TIME INCREMENT INCREASE FACTOR ALLOWED (DIFFUSION)           2.000    
     MINIMUM TIME INCREMENT RATIO FOR EXTRAPOLATION TO OCCUR          0.1000    
     MAX. RATIO OF TIME INCREMENT TO STABILITY LIMIT                   1.000    
     FRACTION OF STABILITY LIMIT FOR NEW TIME INCREMENT               0.9500    
     TIME INCREMENT INCREASE FACTOR BEFORE A TIME POINT                1.000    
     GLOBAL STABILIZATION CONTROL IS NOT USED

          PRINT OF INCREMENT NUMBER, TIME, ETC., EVERY    1  INCREMENTS

     THE MAXIMUM NUMBER OF INCREMENTS IN THIS STEP IS                 1000000

          UNSYMMETRIC MATRIX STORAGE AND SOLUTION WILL BE USED

     LINEAR EXTRAPOLATION WILL BE USED

     CHARACTERISTIC ELEMENT LENGTH     0.473    

     DETAILS REGARDING ACTUAL SOLUTION WAVEFRONT REQUESTED

     DETAILED OUTPUT OF DIAGNOSTICS TO DATABASE REQUESTED

     PRINT OF INCREMENT NUMBER, TIME, ETC., TO THE MESSAGE FILE EVERY     1  INCREMENTS

     COLLECTING MODEL CONSTRAINT INFORMATION FOR OVERCONSTRAINT CHECKS

     COLLECTING STEP CONSTRAINT INFORMATION FOR OVERCONSTRAINT CHECKS


  INCREMENT     1 STARTS. ATTEMPT NUMBER  1, TIME INCREMENT  5.000E-02

  NUMBER OF EQUATIONS =     2226     NUMBER OF FLOATING PT. OPERATIONS =  1.51E+07

     CHECK POINT   START OF SOLVER    

     CHECK POINT  END OF SOLVER       

       ELAPSED USER TIME (SEC)      =   0.0000    
       ELAPSED SYSTEM TIME (SEC)    =   0.0000    
       ELAPSED TOTAL CPU TIME (SEC) =   0.0000    
       ELAPSED WALLCLOCK TIME (SEC) =          0

               CONVERGENCE CHECKS FOR EQUILIBRIUM ITERATION     1

   MAX. PENETRATION ERROR 1.76640E-06 AT NODE SOIL-1.141 OF CONTACT PAIR 
   (ASSEMBLY_SOIL-1_BASE_SOIL,ASSEMBLY_FND-1_BOT_F)
   MAX. SLIP ERROR 240.219E-12   AT NODE SOIL-1.144 OF CONTACT PAIR 
   (ASSEMBLY_SOIL-1_BASE_SOIL,ASSEMBLY_FND-1_BOT_F)
   MAX. CONTACT FORCE ERROR 835.430E-06   AT NODE SOIL-1.141 OF CONTACT PAIR 
   (ASSEMBLY_SOIL-1_BASE_SOIL,ASSEMBLY_FND-1_BOT_F)
          PENETRATION ERROR TOO LARGE COMPARED TO DISPLACEMENT INCREMENT.

 AVERAGE FORCE                      0.142       TIME AVG. FORCE       0.142    
 LARGEST RESIDUAL FORCE             1.466E-07   AT NODE          1   DOF  2
   INSTANCE:                                                                                 
 LARGEST INCREMENT OF DISP.        -1.273E-05   AT NODE        141   DOF  2
   INSTANCE: SOIL-1                                                                          
 LARGEST CORRECTION TO DISP.       -1.273E-05   AT NODE        141   DOF  2
   INSTANCE: SOIL-1                                                                          
 ESTIMATE OF DISP.    CORRECTION   -2.541E-15
 FORCE     EQUILIB. ACCEPTED BASED ON SMALL RESIDUAL AND ESTIMATED CORRECTION

 AVERAGE MOMENT                     3.724E-04   TIME AVG. MOMENT      3.724E-04
 LARGEST RESIDUAL MOMENT           -2.529E-09   AT NODE          1   DOF  6
   INSTANCE:                                                                                 
 LARGEST INCREMENT OF ROTATION     -1.865E-07   AT NODE          1   DOF  6
   INSTANCE: MASS-1                                                                          
 LARGEST CORRECTION TO ROTATION    -1.865E-07   AT NODE          1   DOF  6
   INSTANCE: MASS-1                                                                          
          ROTATION CORRECTION TOO LARGE COMPARED TO ROTATION INCREMENT

  NUMBER OF EQUATIONS =     2226     NUMBER OF FLOATING PT. OPERATIONS =  1.51E+07

     CHECK POINT   START OF SOLVER    

     CHECK POINT  END OF SOLVER       

       ELAPSED USER TIME (SEC)      =   0.0000    
       ELAPSED SYSTEM TIME (SEC)    =   0.0000    
       ELAPSED TOTAL CPU TIME (SEC) =   0.0000    
       ELAPSED WALLCLOCK TIME (SEC) =          0

               CONVERGENCE CHECKS FOR EQUILIBRIUM ITERATION     2

   MAX. PENETRATION ERROR 16.6380E-09  AT NODE SOIL-1.916 OF CONTACT PAIR 
   (ASSEMBLY_SOIL-1_BASE_SOIL,ASSEMBLY_FND-1_BOT_F)
   MAX. SLIP ERROR 7.11166E-12 AT NODE SOIL-1.144 OF CONTACT PAIR 
   (ASSEMBLY_SOIL-1_BASE_SOIL,ASSEMBLY_FND-1_BOT_F)
   MAX. CONTACT FORCE ERROR 8.06681E-06 AT NODE SOIL-1.916 OF CONTACT PAIR 
   (ASSEMBLY_SOIL-1_BASE_SOIL,ASSEMBLY_FND-1_BOT_F)
          THE CONTACT CONSTRAINTS HAVE CONVERGED.

 AVERAGE FORCE                      0.142       TIME AVG. FORCE       0.142    
 LARGEST RESIDUAL FORCE             3.706E-10   AT NODE          1   DOF  2
   INSTANCE:                                                                                 
 LARGEST INCREMENT OF DISP.        -1.319E-05   AT NODE        141   DOF  2
   INSTANCE: SOIL-1                                                                          
 LARGEST CORRECTION TO DISP.       -4.626E-07   AT NODE        141   DOF  2
   INSTANCE: SOIL-1                                                                          
          THE FORCE     EQUILIBRIUM EQUATIONS HAVE CONVERGED

 AVERAGE MOMENT                     3.724E-04   TIME AVG. MOMENT      3.724E-04
 LARGEST RESIDUAL MOMENT           -3.301E-13   AT NODE          1   DOF  6
   INSTANCE:                                                                                 
 LARGEST INCREMENT OF ROTATION     -1.867E-07   AT NODE          1   DOF  6
   INSTANCE: MASS-1                                                                          
 LARGEST CORRECTION TO ROTATION    -2.484E-10   AT NODE          1   DOF  6
   INSTANCE: MASS-1                                                                          
          THE MOMENT    EQUILIBRIUM EQUATIONS HAVE CONVERGED

 ITERATION SUMMARY FOR THE INCREMENT:   2 TOTAL ITERATIONS, OF WHICH
   0 ARE SEVERE DISCONTINUITY ITERATIONS AND  2 ARE EQUILIBRIUM ITERATIONS.

 TIME INCREMENT COMPLETED  5.000E-02,  FRACTION OF STEP COMPLETED  5.000E-03
 STEP TIME COMPLETED       5.000E-02,  TOTAL TIME COMPLETED        5.000E-02


  INCREMENT     2 STARTS. ATTEMPT NUMBER  1, TIME INCREMENT  5.000E-02

                    2 SEVERE DISCONTINUITIES OCCURRED DURING INCREMENT ATTEMPT INITIALIZATION.
                    2 POINTS CHANGED FROM STICKING TO SLIPPING

  NUMBER OF EQUATIONS =     2224     NUMBER OF FLOATING PT. OPERATIONS =  1.50E+07

     CHECK POINT   START OF SOLVER    

     CHECK POINT  END OF SOLVER       

       ELAPSED USER TIME (SEC)      =   0.0000    
       ELAPSED SYSTEM TIME (SEC)    =   0.0000    
       ELAPSED TOTAL CPU TIME (SEC) =   0.0000    
       ELAPSED WALLCLOCK TIME (SEC) =          0

                    2 SEVERE DISCONTINUITIES OCCURRED DURING THIS ITERATION.
                    2 POINTS CHANGED FROM SLIPPING TO STICKING

               CONVERGENCE CHECKS FOR SEVERE DISCONTINUITY ITERATION     1

   MAX. PENETRATION ERROR 640.548E-09   AT NODE SOIL-1.1012 OF CONTACT PAIR 
   (ASSEMBLY_SOIL-1_BASE_SOIL,ASSEMBLY_FND-1_BOT_F)
   MAX. SLIP ERROR 1.49350E-06 AT NODE SOIL-1.138 OF CONTACT PAIR 
   (ASSEMBLY_SOIL-1_BASE_SOIL,ASSEMBLY_FND-1_BOT_F)
   MAX. CONTACT FORCE ERROR 265.019E-06   AT NODE SOIL-1.1012 OF CONTACT PAIR 
   (ASSEMBLY_SOIL-1_BASE_SOIL,ASSEMBLY_FND-1_BOT_F)
          SLIP ERROR TOO LARGE COMPARED TO DISPLACEMENT INCREMENT.

 AVERAGE FORCE                      1.071E+03   TIME AVG. FORCE        536.    
 LARGEST RESIDUAL FORCE             2.616E-03   AT NODE        138   DOF  1
   INSTANCE: SOIL-1                                                                          
 LARGEST INCREMENT OF DISP.        -1.139E-05   AT NODE        539   DOF  2
   INSTANCE: SOIL-1                                                                          
 LARGEST CORRECTION TO DISP.       -6.065E-06   AT NODE       1108   DOF  2
   INSTANCE: SOIL-1                                                                          
          DISP.    CORRECTION TOO LARGE COMPARED TO DISP.    INCREMENT

 AVERAGE MOMENT                     1.504E-03   TIME AVG. MOMENT      9.380E-04
 LARGEST RESIDUAL MOMENT           -2.179E-04   AT NODE          1   DOF  6
   INSTANCE:                                                                                 
 LARGEST INCREMENT OF ROTATION     -8.341E-07   AT NODE          1   DOF  6
   INSTANCE: MASS-1                                                                          
 LARGEST CORRECTION TO ROTATION    -6.474E-07   AT NODE          1   DOF  6
   INSTANCE: MASS-1                                                                          
          MOMENT    EQUILIBRIUM NOT ACHIEVED WITHIN TOLERANCE.

  NUMBER OF EQUATIONS =     2226     NUMBER OF FLOATING PT. OPERATIONS =  1.51E+07

     CHECK POINT   START OF SOLVER    

     CHECK POINT  END OF SOLVER       

       ELAPSED USER TIME (SEC)      =  0.10000    
       ELAPSED SYSTEM TIME (SEC)    =   0.0000    
       ELAPSED TOTAL CPU TIME (SEC) =  0.10000    
       ELAPSED WALLCLOCK TIME (SEC) =          0

               CONVERGENCE CHECKS FOR EQUILIBRIUM ITERATION     1

   MAX. PENETRATION ERROR 2.45651E-09 AT NODE SOIL-1.140 OF CONTACT PAIR 
   (ASSEMBLY_SOIL-1_BASE_SOIL,ASSEMBLY_FND-1_BOT_F)
   MAX. SLIP ERROR 4.08594E-12 AT NODE SOIL-1.144 OF CONTACT PAIR 
   (ASSEMBLY_SOIL-1_BASE_SOIL,ASSEMBLY_FND-1_BOT_F)
   MAX. CONTACT FORCE ERROR 998.466E-09   AT NODE SOIL-1.140 OF CONTACT PAIR 
   (ASSEMBLY_SOIL-1_BASE_SOIL,ASSEMBLY_FND-1_BOT_F)
          THE CONTACT CONSTRAINTS HAVE CONVERGED.

 AVERAGE FORCE                      1.071E+03   TIME AVG. FORCE        536.    
 LARGEST RESIDUAL FORCE             2.900E-08   AT NODE        138   DOF  1
   INSTANCE: SOIL-1                                                                          
 LARGEST INCREMENT OF DISP.        -1.159E-05   AT NODE        538   DOF  2
   INSTANCE: SOIL-1                                                                          
 LARGEST CORRECTION TO DISP.        2.107E-06   AT NODE        138   DOF  1
   INSTANCE: SOIL-1                                                                          
          THE FORCE     EQUILIBRIUM RESPONSE WAS LINEAR IN THIS INCREMENT

 AVERAGE MOMENT                     1.504E-03   TIME AVG. MOMENT      9.380E-04
 LARGEST RESIDUAL MOMENT            5.804E-10   AT NODE          1   DOF  6
   INSTANCE:                                                                                 
 LARGEST INCREMENT OF ROTATION     -8.352E-07   AT NODE          1   DOF  6
   INSTANCE: MASS-1                                                                          
 LARGEST CORRECTION TO ROTATION    -1.095E-09   AT NODE          1   DOF  6
   INSTANCE: MASS-1                                                                          
          THE MOMENT    EQUILIBRIUM EQUATIONS HAVE CONVERGED
          TIME INCREMENT MAY NOW INCREASE TO    7.500E-02

 ITERATION SUMMARY FOR THE INCREMENT:   2 TOTAL ITERATIONS, OF WHICH
   1 ARE SEVERE DISCONTINUITY ITERATIONS AND  1 ARE EQUILIBRIUM ITERATIONS.

 TIME INCREMENT COMPLETED  5.000E-02,  FRACTION OF STEP COMPLETED  1.000E-02
 STEP TIME COMPLETED       0.100    ,  TOTAL TIME COMPLETED        0.100    


  INCREMENT     3 STARTS. ATTEMPT NUMBER  1, TIME INCREMENT  7.500E-02

                    2 SEVERE DISCONTINUITIES OCCURRED DURING INCREMENT ATTEMPT INITIALIZATION.
                    2 POINTS CHANGED FROM STICKING TO SLIPPING

  NUMBER OF EQUATIONS =     2224     NUMBER OF FLOATING PT. OPERATIONS =  1.50E+07

     CHECK POINT   START OF SOLVER    

     CHECK POINT  END OF SOLVER       

       ELAPSED USER TIME (SEC)      =  0.10000    
       ELAPSED SYSTEM TIME (SEC)    =   0.0000    
       ELAPSED TOTAL CPU TIME (SEC) =  0.10000    
       ELAPSED WALLCLOCK TIME (SEC) =          0

                    2 SEVERE DISCONTINUITIES OCCURRED DURING THIS ITERATION.
                    2 POINTS CHANGED FROM SLIPPING TO STICKING

               CONVERGENCE CHECKS FOR SEVERE DISCONTINUITY ITERATION     1

   MAX. PENETRATION ERROR 5.80808E-06 AT NODE SOIL-1.141 OF CONTACT PAIR 
   (ASSEMBLY_SOIL-1_BASE_SOIL,ASSEMBLY_FND-1_BOT_F)
   MAX. SLIP ERROR 1.02748E-06 AT NODE SOIL-1.138 OF CONTACT PAIR 
   (ASSEMBLY_SOIL-1_BASE_SOIL,ASSEMBLY_FND-1_BOT_F)
   MAX. CONTACT FORCE ERROR 2.22683E-03 AT NODE SOIL-1.141 OF CONTACT PAIR 
   (ASSEMBLY_SOIL-1_BASE_SOIL,ASSEMBLY_FND-1_BOT_F)
          SLIP ERROR TOO LARGE COMPARED TO DISPLACEMENT INCREMENT.

 AVERAGE FORCE                       622.       TIME AVG. FORCE        564.    
 LARGEST RESIDUAL FORCE            -4.633E-03   AT NODE        138   DOF  1
   INSTANCE: SOIL-1                                                                          
 LARGEST INCREMENT OF DISP.         1.943E-05   AT NODE          1   DOF  1
   INSTANCE: MASS-1                                                                          
 LARGEST CORRECTION TO DISP.        1.746E-05   AT NODE        538   DOF  2
   INSTANCE: SOIL-1                                                                          
          DISP.    CORRECTION TOO LARGE COMPARED TO DISP.    INCREMENT

 AVERAGE MOMENT                     2.540E-03   TIME AVG. MOMENT      1.472E-03
 LARGEST RESIDUAL MOMENT            1.076E-03   AT NODE          1   DOF  6
   INSTANCE:                                                                                 
 LARGEST INCREMENT OF ROTATION     -3.867E-06   AT NODE          1   DOF  6
   INSTANCE: MASS-1                                                                          
 LARGEST CORRECTION TO ROTATION    -2.615E-06   AT NODE          1   DOF  6
   INSTANCE: PIER-1                                                                          
          MOMENT    EQUILIBRIUM NOT ACHIEVED WITHIN TOLERANCE.

  NUMBER OF EQUATIONS =     2226     NUMBER OF FLOATING PT. OPERATIONS =  1.51E+07

     CHECK POINT   START OF SOLVER    

     CHECK POINT  END OF SOLVER       

       ELAPSED USER TIME (SEC)      =   0.0000    
       ELAPSED SYSTEM TIME (SEC)    =   0.0000    
       ELAPSED TOTAL CPU TIME (SEC) =   0.0000    
       ELAPSED WALLCLOCK TIME (SEC) =          0

               CONVERGENCE CHECKS FOR EQUILIBRIUM ITERATION     1

   MAX. PENETRATION ERROR 184.325E-09   AT NODE SOIL-1.141 OF CONTACT PAIR 
   (ASSEMBLY_SOIL-1_BASE_SOIL,ASSEMBLY_FND-1_BOT_F)
   MAX. SLIP ERROR 7.66000E-12 AT NODE SOIL-1.1012 OF CONTACT PAIR 
   (ASSEMBLY_SOIL-1_BASE_SOIL,ASSEMBLY_FND-1_BOT_F)
   MAX. CONTACT FORCE ERROR 76.8719E-06  AT NODE SOIL-1.141 OF CONTACT PAIR 
   (ASSEMBLY_SOIL-1_BASE_SOIL,ASSEMBLY_FND-1_BOT_F)
          PENETRATION ERROR TOO LARGE COMPARED TO DISPLACEMENT INCREMENT.

 AVERAGE FORCE                       583.       TIME AVG. FORCE        551.    
 LARGEST RESIDUAL FORCE             1.979E-08   AT NODE          1   DOF  2
   INSTANCE:                                                                                 
 LARGEST INCREMENT OF DISP.         1.943E-05   AT NODE          1   DOF  1
   INSTANCE: MASS-1                                                                          
 LARGEST CORRECTION TO DISP.       -1.566E-06   AT NODE        141   DOF  2
   INSTANCE: SOIL-1                                                                          
          THE FORCE     EQUILIBRIUM RESPONSE WAS LINEAR IN THIS INCREMENT

 AVERAGE MOMENT                     2.540E-03   TIME AVG. MOMENT      1.472E-03
 LARGEST RESIDUAL MOMENT            9.209E-09   AT NODE          1   DOF  6
   INSTANCE:                                                                                 
 LARGEST INCREMENT OF ROTATION     -3.854E-06   AT NODE          1   DOF  6
   INSTANCE: MASS-1                                                                          
 LARGEST CORRECTION TO ROTATION     1.307E-08   AT NODE          1   DOF  6
   INSTANCE: {assembly node}                                                                 
          THE MOMENT    EQUILIBRIUM EQUATIONS HAVE CONVERGED

  NUMBER OF EQUATIONS =     2226     NUMBER OF FLOATING PT. OPERATIONS =  1.51E+07

     CHECK POINT   START OF SOLVER    

     CHECK POINT  END OF SOLVER       

       ELAPSED USER TIME (SEC)      =   0.0000    
       ELAPSED SYSTEM TIME (SEC)    =   0.0000    
       ELAPSED TOTAL CPU TIME (SEC) =   0.0000    
       ELAPSED WALLCLOCK TIME (SEC) =          0

               CONVERGENCE CHECKS FOR EQUILIBRIUM ITERATION     2

   MAX. PENETRATION ERROR 201.230E-12   AT NODE SOIL-1.141 OF CONTACT PAIR 
   (ASSEMBLY_SOIL-1_BASE_SOIL,ASSEMBLY_FND-1_BOT_F)
   MAX. SLIP ERROR 239.568E-15   AT NODE SOIL-1.1012 OF CONTACT PAIR 
   (ASSEMBLY_SOIL-1_BASE_SOIL,ASSEMBLY_FND-1_BOT_F)
   MAX. CONTACT FORCE ERROR 84.1573E-09  AT NODE SOIL-1.141 OF CONTACT PAIR 
   (ASSEMBLY_SOIL-1_BASE_SOIL,ASSEMBLY_FND-1_BOT_F)
          THE CONTACT CONSTRAINTS HAVE CONVERGED.

 AVERAGE FORCE                       518.       TIME AVG. FORCE        530.    
 LARGEST RESIDUAL FORCE             1.488E-11   AT NODE          1   DOF  2
   INSTANCE:                                                                                 
 LARGEST INCREMENT OF DISP.         1.943E-05   AT NODE          1   DOF  1
   INSTANCE: MASS-1                                                                          
 LARGEST CORRECTION TO DISP.       -4.559E-08   AT NODE        141   DOF  2
   INSTANCE: SOIL-1                                                                          
          THE FORCE     EQUILIBRIUM EQUATIONS HAVE CONVERGED

 AVERAGE MOMENT                     2.540E-03   TIME AVG. MOMENT      1.472E-03
 LARGEST RESIDUAL MOMENT            5.787E-13   AT NODE          1   DOF  6
   INSTANCE:                                                                                 
 LARGEST INCREMENT OF ROTATION     -3.854E-06   AT NODE          1   DOF  6
   INSTANCE: MASS-1                                                                          
 LARGEST CORRECTION TO ROTATION     7.306E-11   AT NODE          2   DOF  6
   INSTANCE: PIER-1                                                                          
          THE MOMENT    EQUILIBRIUM EQUATIONS HAVE CONVERGED
          TIME INCREMENT MAY NOW INCREASE TO    0.113    

 ITERATION SUMMARY FOR THE INCREMENT:   3 TOTAL ITERATIONS, OF WHICH
   1 ARE SEVERE DISCONTINUITY ITERATIONS AND  2 ARE EQUILIBRIUM ITERATIONS.

 TIME INCREMENT COMPLETED  7.500E-02,  FRACTION OF STEP COMPLETED  1.750E-02
 STEP TIME COMPLETED       0.175    ,  TOTAL TIME COMPLETED        0.175    


  INCREMENT     4 STARTS. ATTEMPT NUMBER  1, TIME INCREMENT  0.113    

  NUMBER OF EQUATIONS =     2226     NUMBER OF FLOATING PT. OPERATIONS =  1.51E+07

     CHECK POINT   START OF SOLVER    

     CHECK POINT  END OF SOLVER       

       ELAPSED USER TIME (SEC)      =   0.0000    
       ELAPSED SYSTEM TIME (SEC)    =   0.0000    
       ELAPSED TOTAL CPU TIME (SEC) =   0.0000    
       ELAPSED WALLCLOCK TIME (SEC) =          0

               CONVERGENCE CHECKS FOR EQUILIBRIUM ITERATION     1

   MAX. PENETRATION ERROR 5.03672E-06 AT NODE SOIL-1.138 OF CONTACT PAIR 
   (ASSEMBLY_SOIL-1_BASE_SOIL,ASSEMBLY_FND-1_BOT_F)
   MAX. SLIP ERROR 795.921E-12   AT NODE SOIL-1.138 OF CONTACT PAIR 
   (ASSEMBLY_SOIL-1_BASE_SOIL,ASSEMBLY_FND-1_BOT_F)
   MAX. CONTACT FORCE ERROR 2.78267E-03 AT NODE SOIL-1.1060 OF CONTACT PAIR 
   (ASSEMBLY_SOIL-1_BASE_SOIL,ASSEMBLY_FND-1_BOT_F)
          PENETRATION ERROR TOO LARGE COMPARED TO DISPLACEMENT INCREMENT.

 AVERAGE FORCE                      1.631E+03   TIME AVG. FORCE        805.    
 LARGEST RESIDUAL FORCE            -1.891E-07   AT NODE          1   DOF  1
   INSTANCE:                                                                                 
 LARGEST INCREMENT OF DISP.         7.849E-05   AT NODE          1   DOF  1
   INSTANCE: MASS-1                                                                          
 LARGEST CORRECTION TO DISP.        4.935E-05   AT NODE          1   DOF  1
   INSTANCE: PIER-1                                                                          
          THE FORCE     EQUILIBRIUM RESPONSE WAS LINEAR IN THIS INCREMENT

 AVERAGE MOMENT                     3.970E-03   TIME AVG. MOMENT      2.097E-03
 LARGEST RESIDUAL MOMENT           -1.861E-07   AT NODE          1   DOF  6
   INSTANCE:                                                                                 
 LARGEST INCREMENT OF ROTATION     -1.534E-05   AT NODE          1   DOF  6
   INSTANCE: MASS-1                                                                          
 LARGEST CORRECTION TO ROTATION    -9.562E-06   AT NODE          1   DOF  6
   INSTANCE: PIER-1                                                                          
 ESTIMATE OF ROTATION CORRECTION   -1.273E-10
 MOMENT    EQUILIB. ACCEPTED BASED ON SMALL RESIDUAL AND ESTIMATED CORRECTION

  NUMBER OF EQUATIONS =     2226     NUMBER OF FLOATING PT. OPERATIONS =  1.51E+07

     CHECK POINT   START OF SOLVER    

     CHECK POINT  END OF SOLVER       

       ELAPSED USER TIME (SEC)      =   0.0000    
       ELAPSED SYSTEM TIME (SEC)    =   0.0000    
       ELAPSED TOTAL CPU TIME (SEC) =   0.0000    
       ELAPSED WALLCLOCK TIME (SEC) =          1

               CONVERGENCE CHECKS FOR EQUILIBRIUM ITERATION     2

   MAX. PENETRATION ERROR 113.236E-09   AT NODE SOIL-1.138 OF CONTACT PAIR 
   (ASSEMBLY_SOIL-1_BASE_SOIL,ASSEMBLY_FND-1_BOT_F)
   MAX. SLIP ERROR 17.8188E-12  AT NODE SOIL-1.139 OF CONTACT PAIR 
   (ASSEMBLY_SOIL-1_BASE_SOIL,ASSEMBLY_FND-1_BOT_F)
   MAX. CONTACT FORCE ERROR 49.5258E-06  AT NODE SOIL-1.138 OF CONTACT PAIR 
   (ASSEMBLY_SOIL-1_BASE_SOIL,ASSEMBLY_FND-1_BOT_F)
          THE CONTACT CONSTRAINTS HAVE CONVERGED.

 AVERAGE FORCE                      1.468E+03   TIME AVG. FORCE        764.    
 LARGEST RESIDUAL FORCE             1.261E-09   AT NODE          1   DOF  1
   INSTANCE:                                                                                 
 LARGEST INCREMENT OF DISP.         7.849E-05   AT NODE          1   DOF  1
   INSTANCE: MASS-1                                                                          
 LARGEST CORRECTION TO DISP.       -1.369E-06   AT NODE       1060   DOF  2
   INSTANCE: SOIL-1                                                                          
          THE FORCE     EQUILIBRIUM EQUATIONS HAVE CONVERGED

 AVERAGE MOMENT                     3.970E-03   TIME AVG. MOMENT      2.097E-03
 LARGEST RESIDUAL MOMENT            5.276E-10   AT NODE          1   DOF  6
   INSTANCE:                                                                                 
 LARGEST INCREMENT OF ROTATION     -1.531E-05   AT NODE          1   DOF  6
   INSTANCE: MASS-1                                                                          
 LARGEST CORRECTION TO ROTATION     3.507E-08   AT NODE          2   DOF  6
   INSTANCE: PIER-1                                                                          
          THE MOMENT    EQUILIBRIUM EQUATIONS HAVE CONVERGED
          TIME INCREMENT MAY NOW INCREASE TO    0.169    

 ITERATION SUMMARY FOR THE INCREMENT:   2 TOTAL ITERATIONS, OF WHICH
   0 ARE SEVERE DISCONTINUITY ITERATIONS AND  2 ARE EQUILIBRIUM ITERATIONS.

 TIME INCREMENT COMPLETED  0.113    ,  FRACTION OF STEP COMPLETED  2.875E-02
 STEP TIME COMPLETED       0.288    ,  TOTAL TIME COMPLETED        0.288    


  INCREMENT     5 STARTS. ATTEMPT NUMBER  1, TIME INCREMENT  0.169    

  NUMBER OF EQUATIONS =     2226     NUMBER OF FLOATING PT. OPERATIONS =  1.51E+07

     CHECK POINT   START OF SOLVER    

     CHECK POINT  END OF SOLVER       

       ELAPSED USER TIME (SEC)      =  0.10000    
       ELAPSED SYSTEM TIME (SEC)    =   0.0000    
       ELAPSED TOTAL CPU TIME (SEC) =  0.10000    
       ELAPSED WALLCLOCK TIME (SEC) =          0

                    1 SEVERE DISCONTINUITIES OCCURRED DURING THIS ITERATION.
                    1 POINTS CHANGED FROM STICKING TO SLIPPING

               CONVERGENCE CHECKS FOR SEVERE DISCONTINUITY ITERATION     1

   MAX. PENETRATION ERROR 12.9837E-06  AT NODE SOIL-1.138 OF CONTACT PAIR 
   (ASSEMBLY_SOIL-1_BASE_SOIL,ASSEMBLY_FND-1_BOT_F)
   MAX. SLIP ERROR 2.66581E-09 AT NODE SOIL-1.138 OF CONTACT PAIR 
   (ASSEMBLY_SOIL-1_BASE_SOIL,ASSEMBLY_FND-1_BOT_F)
   MAX. CONTACT FORCE ERROR 14.0525E-03  AT NODE SOIL-1.1060 OF CONTACT PAIR 
   (ASSEMBLY_SOIL-1_BASE_SOIL,ASSEMBLY_FND-1_BOT_F)
          PENETRATION ERROR TOO LARGE COMPARED TO DISPLACEMENT INCREMENT.

 AVERAGE FORCE                       160.       TIME AVG. FORCE        643.    
 LARGEST RESIDUAL FORCE             8.726E-03   AT NODE          1   DOF  1
   INSTANCE:                                                                                 
 LARGEST INCREMENT OF DISP.         2.826E-04   AT NODE          1   DOF  1
   INSTANCE: MASS-1                                                                          
 LARGEST CORRECTION TO DISP.        1.649E-04   AT NODE          1   DOF  1
   INSTANCE: PIER-1                                                                          
          DISP.    CORRECTION TOO LARGE COMPARED TO DISP.    INCREMENT

 AVERAGE MOMENT                     5.459E-03   TIME AVG. MOMENT      2.769E-03
 LARGEST RESIDUAL MOMENT            4.363E-03   AT NODE          1   DOF  6
   INSTANCE:                                                                                 
 LARGEST INCREMENT OF ROTATION     -5.383E-05   AT NODE          1   DOF  6
   INSTANCE: MASS-1                                                                          
 LARGEST CORRECTION TO ROTATION    -3.087E-05   AT NODE          1   DOF  6
   INSTANCE: PIER-1                                                                          
          MOMENT    EQUILIBRIUM NOT ACHIEVED WITHIN TOLERANCE.

  NUMBER OF EQUATIONS =     2225     NUMBER OF FLOATING PT. OPERATIONS =  1.50E+07

     CHECK POINT   START OF SOLVER    

     CHECK POINT  END OF SOLVER       

       ELAPSED USER TIME (SEC)      =   0.0000    
       ELAPSED SYSTEM TIME (SEC)    =   0.0000    
       ELAPSED TOTAL CPU TIME (SEC) =   0.0000    
       ELAPSED WALLCLOCK TIME (SEC) =          0

                    1 SEVERE DISCONTINUITIES OCCURRED DURING THIS ITERATION.
                    1 POINTS CHANGED FROM STICKING TO SLIPPING

               CONVERGENCE CHECKS FOR SEVERE DISCONTINUITY ITERATION     2

   MAX. PENETRATION ERROR 656.775E-09   AT NODE SOIL-1.144 OF CONTACT PAIR 
   (ASSEMBLY_SOIL-1_BASE_SOIL,ASSEMBLY_FND-1_BOT_F)
   MAX. SLIP ERROR 406.799E-12   AT NODE SOIL-1.138 OF CONTACT PAIR 
   (ASSEMBLY_SOIL-1_BASE_SOIL,ASSEMBLY_FND-1_BOT_F)
   MAX. CONTACT FORCE ERROR 390.221E-06   AT NODE SOIL-1.138 OF CONTACT PAIR 
   (ASSEMBLY_SOIL-1_BASE_SOIL,ASSEMBLY_FND-1_BOT_F)
          THE CONTACT CONSTRAINT ERRORS ARE WITHIN THE TOLERANCES.

 AVERAGE FORCE                       148.       TIME AVG. FORCE        641.    
 LARGEST RESIDUAL FORCE             4.858E-03   AT NODE          1   DOF  1
   INSTANCE:                                                                                 
 LARGEST INCREMENT OF DISP.         2.826E-04   AT NODE          1   DOF  1
   INSTANCE: MASS-1                                                                          
 LARGEST CORRECTION TO DISP.       -5.714E-06   AT NODE        138   DOF  2
   INSTANCE: SOIL-1                                                                          
          DISP.    CORRECTION TOO LARGE COMPARED TO DISP.    INCREMENT

 AVERAGE MOMENT                     5.459E-03   TIME AVG. MOMENT      2.769E-03
 LARGEST RESIDUAL MOMENT            2.429E-03   AT NODE          1   DOF  6
   INSTANCE:                                                                                 
 LARGEST INCREMENT OF ROTATION     -5.359E-05   AT NODE          1   DOF  6
   INSTANCE: MASS-1                                                                          
 LARGEST CORRECTION TO ROTATION     2.358E-07   AT NODE          1   DOF  6
   INSTANCE: MASS-1                                                                          
          MOMENT    EQUILIBRIUM NOT ACHIEVED WITHIN TOLERANCE.

  NUMBER OF EQUATIONS =     2224     NUMBER OF FLOATING PT. OPERATIONS =  1.50E+07

     CHECK POINT   START OF SOLVER    

     CHECK POINT  END OF SOLVER       

       ELAPSED USER TIME (SEC)      =   0.0000    
       ELAPSED SYSTEM TIME (SEC)    =   0.0000    
       ELAPSED TOTAL CPU TIME (SEC) =   0.0000    
       ELAPSED WALLCLOCK TIME (SEC) =          0

               CONVERGENCE CHECKS FOR EQUILIBRIUM ITERATION     1

   MAX. PENETRATION ERROR 6.02374E-09 AT NODE SOIL-1.144 OF CONTACT PAIR 
   (ASSEMBLY_SOIL-1_BASE_SOIL,ASSEMBLY_FND-1_BOT_F)
   MAX. SLIP ERROR 49.8272E-12  AT NODE SOIL-1.138 OF CONTACT PAIR 
   (ASSEMBLY_SOIL-1_BASE_SOIL,ASSEMBLY_FND-1_BOT_F)
   MAX. CONTACT FORCE ERROR 664.256E-09   AT NODE SOIL-1.144 OF CONTACT PAIR 
   (ASSEMBLY_SOIL-1_BASE_SOIL,ASSEMBLY_FND-1_BOT_F)
          THE CONTACT CONSTRAINTS HAVE CONVERGED.

 AVERAGE FORCE                       148.       TIME AVG. FORCE        641.    
 LARGEST RESIDUAL FORCE            -2.321E-08   AT NODE          1   DOF  2
   INSTANCE:                                                                                 
 LARGEST INCREMENT OF DISP.         2.826E-04   AT NODE          1   DOF  1
   INSTANCE: MASS-1                                                                          
 LARGEST CORRECTION TO DISP.       -1.491E-06   AT NODE        820   DOF  1
   INSTANCE: SOIL-1                                                                          
          THE FORCE     EQUILIBRIUM RESPONSE WAS LINEAR IN THIS INCREMENT

 AVERAGE MOMENT                     5.459E-03   TIME AVG. MOMENT      2.769E-03
 LARGEST RESIDUAL MOMENT            2.362E-08   AT NODE          1   DOF  6
   INSTANCE:                                                                                 
 LARGEST INCREMENT OF ROTATION     -5.355E-05   AT NODE          1   DOF  6
   INSTANCE: MASS-1                                                                          
 LARGEST CORRECTION TO ROTATION     4.067E-08   AT NODE          2   DOF  6
   INSTANCE: PIER-1                                                                          
          THE MOMENT    EQUILIBRIUM EQUATIONS HAVE CONVERGED
          TIME INCREMENT MAY NOW INCREASE TO    0.253    

 ITERATION SUMMARY FOR THE INCREMENT:   3 TOTAL ITERATIONS, OF WHICH
   2 ARE SEVERE DISCONTINUITY ITERATIONS AND  1 ARE EQUILIBRIUM ITERATIONS.

 TIME INCREMENT COMPLETED  0.169    ,  FRACTION OF STEP COMPLETED  4.563E-02
 STEP TIME COMPLETED       0.456    ,  TOTAL TIME COMPLETED        0.456    


  INCREMENT     6 STARTS. ATTEMPT NUMBER  1, TIME INCREMENT  0.253    

                    1 SEVERE DISCONTINUITIES OCCURRED DURING INCREMENT ATTEMPT INITIALIZATION.
                    1 POINTS CHANGED FROM STICKING TO SLIPPING

  NUMBER OF EQUATIONS =     2223     NUMBER OF FLOATING PT. OPERATIONS =  1.50E+07

     CHECK POINT   START OF SOLVER    

     CHECK POINT  END OF SOLVER       

       ELAPSED USER TIME (SEC)      =   0.0000    
       ELAPSED SYSTEM TIME (SEC)    =   0.0000    
       ELAPSED TOTAL CPU TIME (SEC) =   0.0000    
       ELAPSED WALLCLOCK TIME (SEC) =          0

                    4 SEVERE DISCONTINUITIES OCCURRED DURING THIS ITERATION.
                    2 POINTS CHANGED FROM CLOSED TO OPEN
                    2 POINTS CHANGED FROM STICKING TO SLIPPING

               CONVERGENCE CHECKS FOR SEVERE DISCONTINUITY ITERATION     1

   MAX. PENETRATION ERROR 26.9382E-06  AT NODE SOIL-1.138 OF CONTACT PAIR 
   (ASSEMBLY_SOIL-1_BASE_SOIL,ASSEMBLY_FND-1_BOT_F)
   MAX. SLIP ERROR 7.85806E-09 AT NODE SOIL-1.139 OF CONTACT PAIR 
   (ASSEMBLY_SOIL-1_BASE_SOIL,ASSEMBLY_FND-1_BOT_F)
   MAX. CONTACT FORCE ERROR 80.9581E-03  AT NODE SOIL-1.138 OF CONTACT PAIR 
   (ASSEMBLY_SOIL-1_BASE_SOIL,ASSEMBLY_FND-1_BOT_F)
          PENETRATION ERROR TOO LARGE COMPARED TO DISPLACEMENT INCREMENT.

 AVERAGE FORCE                       20.5       TIME AVG. FORCE        538.    
 LARGEST RESIDUAL FORCE             6.206E-02   AT NODE          1   DOF  1
   INSTANCE:                                                                                 
 LARGEST INCREMENT OF DISP.         8.914E-04   AT NODE          1   DOF  1
   INSTANCE: MASS-1                                                                          
 LARGEST CORRECTION TO DISP.        4.675E-04   AT NODE          1   DOF  1
   INSTANCE: PIER-1                                                                          
          DISP.    CORRECTION TOO LARGE COMPARED TO DISP.    INCREMENT

 AVERAGE MOMENT                     5.863E-03   TIME AVG. MOMENT      3.285E-03
 LARGEST RESIDUAL MOMENT            3.103E-02   AT NODE          1   DOF  6
   INSTANCE:                                                                                 
 LARGEST INCREMENT OF ROTATION     -1.609E-04   AT NODE          1   DOF  6
   INSTANCE: MASS-1                                                                          
 LARGEST CORRECTION TO ROTATION    -8.063E-05   AT NODE          1   DOF  6
   INSTANCE: PIER-1                                                                          
          MOMENT    EQUILIBRIUM NOT ACHIEVED WITHIN TOLERANCE.

  NUMBER OF EQUATIONS =     2221     NUMBER OF FLOATING PT. OPERATIONS =  1.49E+07

     CHECK POINT   START OF SOLVER    

     CHECK POINT  END OF SOLVER       

       ELAPSED USER TIME (SEC)      =   0.0000    
       ELAPSED SYSTEM TIME (SEC)    =   0.0000    
       ELAPSED TOTAL CPU TIME (SEC) =   0.0000    
       ELAPSED WALLCLOCK TIME (SEC) =          0

                    1 SEVERE DISCONTINUITIES OCCURRED DURING THIS ITERATION.
                    1 POINTS CHANGED FROM STICKING TO SLIPPING

               CONVERGENCE CHECKS FOR SEVERE DISCONTINUITY ITERATION     2

   MAX. PENETRATION ERROR 7.14991E-06 AT NODE SOIL-1.143 OF CONTACT PAIR 
   (ASSEMBLY_SOIL-1_BASE_SOIL,ASSEMBLY_FND-1_BOT_F)
   MAX. SLIP ERROR 4.77384E-09 AT NODE SOIL-1.138 OF CONTACT PAIR 
   (ASSEMBLY_SOIL-1_BASE_SOIL,ASSEMBLY_FND-1_BOT_F)
   MAX. CONTACT FORCE ERROR 799.870E-06   AT NODE SOIL-1.143 OF CONTACT PAIR 
   (ASSEMBLY_SOIL-1_BASE_SOIL,ASSEMBLY_FND-1_BOT_F)
          PENETRATION ERROR TOO LARGE COMPARED TO DISPLACEMENT INCREMENT.

 AVERAGE FORCE                       21.0       TIME AVG. FORCE        538.    
 LARGEST RESIDUAL FORCE             1.857E-02   AT NODE          1   DOF  1
   INSTANCE:                                                                                 
 LARGEST INCREMENT OF DISP.         8.914E-04   AT NODE          1   DOF  1
   INSTANCE: MASS-1                                                                          
 LARGEST CORRECTION TO DISP.       -2.645E-05   AT NODE        138   DOF  2
   INSTANCE: SOIL-1                                                                          
          DISP.    CORRECTION TOO LARGE COMPARED TO DISP.    INCREMENT

 AVERAGE MOMENT                     5.863E-03   TIME AVG. MOMENT      3.285E-03
 LARGEST RESIDUAL MOMENT            9.286E-03   AT NODE          1   DOF  6
   INSTANCE:                                                                                 
 LARGEST INCREMENT OF ROTATION     -1.594E-04   AT NODE          1   DOF  6
   INSTANCE: MASS-1                                                                          
 LARGEST CORRECTION TO ROTATION     1.528E-06   AT NODE          1   DOF  6
   INSTANCE: {assembly node}                                                                 
          MOMENT    EQUILIBRIUM NOT ACHIEVED WITHIN TOLERANCE.

  NUMBER OF EQUATIONS =     2220     NUMBER OF FLOATING PT. OPERATIONS =  1.49E+07

     CHECK POINT   START OF SOLVER    

     CHECK POINT  END OF SOLVER       

       ELAPSED USER TIME (SEC)      =   0.0000    
       ELAPSED SYSTEM TIME (SEC)    =   0.0000    
       ELAPSED TOTAL CPU TIME (SEC) =   0.0000    
       ELAPSED WALLCLOCK TIME (SEC) =          0

               CONVERGENCE CHECKS FOR EQUILIBRIUM ITERATION     1

   MAX. PENETRATION ERROR 955.034E-09   AT NODE SOIL-1.143 OF CONTACT PAIR 
   (ASSEMBLY_SOIL-1_BASE_SOIL,ASSEMBLY_FND-1_BOT_F)
   MAX. SLIP ERROR 37.4125E-12  AT NODE SOIL-1.141 OF CONTACT PAIR 
   (ASSEMBLY_SOIL-1_BASE_SOIL,ASSEMBLY_FND-1_BOT_F)
   MAX. CONTACT FORCE ERROR 140.342E-06   AT NODE SOIL-1.143 OF CONTACT PAIR 
   (ASSEMBLY_SOIL-1_BASE_SOIL,ASSEMBLY_FND-1_BOT_F)
          THE CONTACT CONSTRAINTS HAVE CONVERGED.

 AVERAGE FORCE                       21.0       TIME AVG. FORCE        538.    
 LARGEST RESIDUAL FORCE             6.388E-06   AT NODE        562   DOF  2
   INSTANCE: SOIL-1                                                                          
 LARGEST INCREMENT OF DISP.         8.914E-04   AT NODE          1   DOF  1
   INSTANCE: MASS-1                                                                          
 LARGEST CORRECTION TO DISP.       -5.998E-06   AT NODE        916   DOF  1
   INSTANCE: SOIL-1                                                                          
          THE FORCE     EQUILIBRIUM EQUATIONS HAVE CONVERGED

 AVERAGE MOMENT                     5.863E-03   TIME AVG. MOMENT      3.285E-03
 LARGEST RESIDUAL MOMENT           -8.702E-08   AT NODE          1   DOF  6
   INSTANCE:                                                                                 
 LARGEST INCREMENT OF ROTATION     -1.593E-04   AT NODE          1   DOF  6
   INSTANCE: MASS-1                                                                          
 LARGEST CORRECTION TO ROTATION     1.593E-07   AT NODE          2   DOF  6
   INSTANCE: PIER-1                                                                          
          THE MOMENT    EQUILIBRIUM EQUATIONS HAVE CONVERGED
          TIME INCREMENT MAY NOW INCREASE TO    0.291    

 ITERATION SUMMARY FOR THE INCREMENT:   3 TOTAL ITERATIONS, OF WHICH
   2 ARE SEVERE DISCONTINUITY ITERATIONS AND  1 ARE EQUILIBRIUM ITERATIONS.

 TIME INCREMENT COMPLETED  0.253    ,  FRACTION OF STEP COMPLETED  7.094E-02
 STEP TIME COMPLETED       0.709    ,  TOTAL TIME COMPLETED        0.709    


  INCREMENT     7 STARTS. ATTEMPT NUMBER  1, TIME INCREMENT  0.291    

  NUMBER OF EQUATIONS =     2220     NUMBER OF FLOATING PT. OPERATIONS =  1.49E+07

     CHECK POINT   START OF SOLVER    

     CHECK POINT  END OF SOLVER       

       ELAPSED USER TIME (SEC)      =   0.0000    
       ELAPSED SYSTEM TIME (SEC)    =  0.10000    
       ELAPSED TOTAL CPU TIME (SEC) =  0.10000    
       ELAPSED WALLCLOCK TIME (SEC) =          0

                    2 SEVERE DISCONTINUITIES OCCURRED DURING THIS ITERATION.
                    1 POINTS CHANGED FROM CLOSED TO OPEN
                    1 POINTS CHANGED FROM STICKING TO SLIPPING

               CONVERGENCE CHECKS FOR SEVERE DISCONTINUITY ITERATION     1

   MAX. PENETRATION ERROR 5.38074E-06 AT NODE SOIL-1.138 OF CONTACT PAIR 
   (ASSEMBLY_SOIL-1_BASE_SOIL,ASSEMBLY_FND-1_BOT_F)
   MAX. SLIP ERROR 8.24141E-09 AT NODE SOIL-1.964 OF CONTACT PAIR 
   (ASSEMBLY_SOIL-1_BASE_SOIL,ASSEMBLY_FND-1_BOT_F)
   MAX. CONTACT FORCE ERROR 24.0246E-03  AT NODE SOIL-1.138 OF CONTACT PAIR 
   (ASSEMBLY_SOIL-1_BASE_SOIL,ASSEMBLY_FND-1_BOT_F)
          THE CONTACT CONSTRAINT ERRORS ARE WITHIN THE TOLERANCES.

 AVERAGE FORCE                       3.97       TIME AVG. FORCE        461.    
 LARGEST RESIDUAL FORCE             2.554E-02   AT NODE          1   DOF  1
   INSTANCE:                                                                                 
 LARGEST INCREMENT OF DISP.         1.680E-03   AT NODE          1   DOF  1
   INSTANCE: PIER-1                                                                          
 LARGEST CORRECTION TO DISP.        6.564E-04   AT NODE          1   DOF  1
   INSTANCE: PIER-1                                                                          
          DISP.    CORRECTION TOO LARGE COMPARED TO DISP.    INCREMENT

 AVERAGE MOMENT                     3.524E-03   TIME AVG. MOMENT      3.319E-03
 LARGEST RESIDUAL MOMENT            1.277E-02   AT NODE          1   DOF  6
   INSTANCE:                                                                                 
 LARGEST INCREMENT OF ROTATION     -2.898E-04   AT NODE          1   DOF  6
   INSTANCE: PIER-1                                                                          
 LARGEST CORRECTION TO ROTATION    -1.069E-04   AT NODE          1   DOF  6
   INSTANCE: PIER-1                                                                          
          MOMENT    EQUILIBRIUM NOT ACHIEVED WITHIN TOLERANCE.

  NUMBER OF EQUATIONS =     2219     NUMBER OF FLOATING PT. OPERATIONS =  1.48E+07

     CHECK POINT   START OF SOLVER    

     CHECK POINT  END OF SOLVER       

       ELAPSED USER TIME (SEC)      =  0.10000    
       ELAPSED SYSTEM TIME (SEC)    =   0.0000    
       ELAPSED TOTAL CPU TIME (SEC) =  0.10000    
       ELAPSED WALLCLOCK TIME (SEC) =          0

               CONVERGENCE CHECKS FOR EQUILIBRIUM ITERATION     1

   MAX. PENETRATION ERROR 13.5811E-09  AT NODE SOIL-1.868 OF CONTACT PAIR 
   (ASSEMBLY_SOIL-1_BASE_SOIL,ASSEMBLY_FND-1_BOT_F)
   MAX. SLIP ERROR 1.08544E-09 AT NODE SOIL-1.964 OF CONTACT PAIR 
   (ASSEMBLY_SOIL-1_BASE_SOIL,ASSEMBLY_FND-1_BOT_F)
   MAX. CONTACT FORCE ERROR 14.9306E-06  AT NODE SOIL-1.139 OF CONTACT PAIR 
   (ASSEMBLY_SOIL-1_BASE_SOIL,ASSEMBLY_FND-1_BOT_F)
          THE CONTACT CONSTRAINTS HAVE CONVERGED.

 AVERAGE FORCE                       4.00       TIME AVG. FORCE        461.    
 LARGEST RESIDUAL FORCE             1.021E-03   AT NODE        879   DOF  2
   INSTANCE: SOIL-1                                                                          
 LARGEST INCREMENT OF DISP.         1.680E-03   AT NODE          1   DOF  1
   INSTANCE: PIER-1                                                                          
 LARGEST CORRECTION TO DISP.       -6.741E-06   AT NODE        138   DOF  2
   INSTANCE: SOIL-1                                                                          
          THE FORCE     EQUILIBRIUM EQUATIONS HAVE CONVERGED

 AVERAGE MOMENT                     3.524E-03   TIME AVG. MOMENT      3.319E-03
 LARGEST RESIDUAL MOMENT           -1.199E-07   AT NODE          1   DOF  6
   INSTANCE:                                                                                 
 LARGEST INCREMENT OF ROTATION     -2.895E-04   AT NODE          1   DOF  6
   INSTANCE: PIER-1                                                                          
 LARGEST CORRECTION TO ROTATION     2.483E-07   AT NODE          1   DOF  6
   INSTANCE: PIER-1                                                                          
          THE MOMENT    EQUILIBRIUM EQUATIONS HAVE CONVERGED
          TIME INCREMENT MAY NOW INCREASE TO    0.436    

 ITERATION SUMMARY FOR THE INCREMENT:   2 TOTAL ITERATIONS, OF WHICH
   1 ARE SEVERE DISCONTINUITY ITERATIONS AND  1 ARE EQUILIBRIUM ITERATIONS.

 TIME INCREMENT COMPLETED  0.291    ,  FRACTION OF STEP COMPLETED  0.100    
 STEP TIME COMPLETED        1.00    ,  TOTAL TIME COMPLETED         1.00    


  INCREMENT     8 STARTS. ATTEMPT NUMBER  1, TIME INCREMENT  0.436    

  NUMBER OF EQUATIONS =     2219     NUMBER OF FLOATING PT. OPERATIONS =  1.48E+07

     CHECK POINT   START OF SOLVER    

     CHECK POINT  END OF SOLVER       

       ELAPSED USER TIME (SEC)      =  0.10000    
       ELAPSED SYSTEM TIME (SEC)    =   0.0000    
       ELAPSED TOTAL CPU TIME (SEC) =  0.10000    
       ELAPSED WALLCLOCK TIME (SEC) =          0

                    1 SEVERE DISCONTINUITIES OCCURRED DURING THIS ITERATION.
                    1 POINTS CHANGED FROM SLIPPING TO STICKING

               CONVERGENCE CHECKS FOR SEVERE DISCONTINUITY ITERATION     1

   MAX. PENETRATION ERROR 16.0889E-06  AT NODE SOIL-1.868 OF CONTACT PAIR 
   (ASSEMBLY_SOIL-1_BASE_SOIL,ASSEMBLY_FND-1_BOT_F)
   MAX. SLIP ERROR 7.85559E-06 AT NODE SOIL-1.141 OF CONTACT PAIR 
   (ASSEMBLY_SOIL-1_BASE_SOIL,ASSEMBLY_FND-1_BOT_F)
   MAX. CONTACT FORCE ERROR 2.72115E-03 AT NODE SOIL-1.868 OF CONTACT PAIR 
   (ASSEMBLY_SOIL-1_BASE_SOIL,ASSEMBLY_FND-1_BOT_F)
          PENETRATION ERROR TOO LARGE COMPARED TO DISPLACEMENT INCREMENT.

 AVERAGE FORCE                       1.02       TIME AVG. FORCE        404.    
 LARGEST RESIDUAL FORCE             0.154       AT NODE          1   DOF  1
   INSTANCE:                                                                                 
 LARGEST INCREMENT OF DISP.         2.997E-03   AT NODE          1   DOF  1
   INSTANCE: PIER-1                                                                          
 LARGEST CORRECTION TO DISP.        4.769E-04   AT NODE          1   DOF  1
   INSTANCE: PIER-1                                                                          
          DISP.    CORRECTION TOO LARGE COMPARED TO DISP.    INCREMENT

 AVERAGE MOMENT                     5.397E-03   TIME AVG. MOMENT      3.579E-03
 LARGEST RESIDUAL MOMENT            7.679E-02   AT NODE          1   DOF  6
   INSTANCE:                                                                                 
 LARGEST INCREMENT OF ROTATION     -5.083E-04   AT NODE          1   DOF  6
   INSTANCE: PIER-1                                                                          
 LARGEST CORRECTION TO ROTATION    -7.401E-05   AT NODE          1   DOF  6
   INSTANCE: PIER-1                                                                          
          MOMENT    EQUILIBRIUM NOT ACHIEVED WITHIN TOLERANCE.

  NUMBER OF EQUATIONS =     2220     NUMBER OF FLOATING PT. OPERATIONS =  1.49E+07

     CHECK POINT   START OF SOLVER    

     CHECK POINT  END OF SOLVER       

       ELAPSED USER TIME (SEC)      =   0.0000    
       ELAPSED SYSTEM TIME (SEC)    =   0.0000    
       ELAPSED TOTAL CPU TIME (SEC) =   0.0000    
       ELAPSED WALLCLOCK TIME (SEC) =          0

               CONVERGENCE CHECKS FOR EQUILIBRIUM ITERATION     1

   MAX. PENETRATION ERROR 2.97637E-06 AT NODE SOIL-1.868 OF CONTACT PAIR 
   (ASSEMBLY_SOIL-1_BASE_SOIL,ASSEMBLY_FND-1_BOT_F)
   MAX. SLIP ERROR 553.912E-12   AT NODE SOIL-1.141 OF CONTACT PAIR 
   (ASSEMBLY_SOIL-1_BASE_SOIL,ASSEMBLY_FND-1_BOT_F)
   MAX. CONTACT FORCE ERROR 754.068E-06   AT NODE SOIL-1.868 OF CONTACT PAIR 
   (ASSEMBLY_SOIL-1_BASE_SOIL,ASSEMBLY_FND-1_BOT_F)
          THE CONTACT CONSTRAINTS HAVE CONVERGED.

 AVERAGE FORCE                       1.02       TIME AVG. FORCE        404.    
 LARGEST RESIDUAL FORCE             1.588E-04   AT NODE        516   DOF  1
   INSTANCE: SOIL-1                                                                          
 LARGEST INCREMENT OF DISP.         2.997E-03   AT NODE          1   DOF  1
   INSTANCE: PIER-1                                                                          
 LARGEST CORRECTION TO DISP.       -9.604E-06   AT NODE        141   DOF  1
   INSTANCE: SOIL-1                                                                          
          THE FORCE     EQUILIBRIUM EQUATIONS HAVE CONVERGED

 AVERAGE MOMENT                     5.397E-03   TIME AVG. MOMENT      3.579E-03
 LARGEST RESIDUAL MOMENT           -7.876E-07   AT NODE          1   DOF  6
   INSTANCE:                                                                                 
 LARGEST INCREMENT OF ROTATION     -5.081E-04   AT NODE          1   DOF  6
   INSTANCE: PIER-1                                                                          
 LARGEST CORRECTION TO ROTATION     2.064E-07   AT NODE          1   DOF  6
   INSTANCE: PIER-1                                                                          
          THE MOMENT    EQUILIBRIUM EQUATIONS HAVE CONVERGED
          TIME INCREMENT MAY NOW INCREASE TO    0.564    

 ITERATION SUMMARY FOR THE INCREMENT:   2 TOTAL ITERATIONS, OF WHICH
   1 ARE SEVERE DISCONTINUITY ITERATIONS AND  1 ARE EQUILIBRIUM ITERATIONS.

 TIME INCREMENT COMPLETED  0.436    ,  FRACTION OF STEP COMPLETED  0.144    
 STEP TIME COMPLETED        1.44    ,  TOTAL TIME COMPLETED         1.44    


  INCREMENT     9 STARTS. ATTEMPT NUMBER  1, TIME INCREMENT  0.564    

  NUMBER OF EQUATIONS =     2220     NUMBER OF FLOATING PT. OPERATIONS =  1.49E+07

     CHECK POINT   START OF SOLVER    

     CHECK POINT  END OF SOLVER       

       ELAPSED USER TIME (SEC)      =   0.0000    
       ELAPSED SYSTEM TIME (SEC)    =   0.0000    
       ELAPSED TOTAL CPU TIME (SEC) =   0.0000    
       ELAPSED WALLCLOCK TIME (SEC) =          0

               CONVERGENCE CHECKS FOR EQUILIBRIUM ITERATION     1

   MAX. PENETRATION ERROR 406.782E-09   AT NODE SOIL-1.138 OF CONTACT PAIR 
   (ASSEMBLY_SOIL-1_BASE_SOIL,ASSEMBLY_FND-1_BOT_F)
   MAX. SLIP ERROR 21.3974E-09  AT NODE SOIL-1.138 OF CONTACT PAIR 
   (ASSEMBLY_SOIL-1_BASE_SOIL,ASSEMBLY_FND-1_BOT_F)
   MAX. CONTACT FORCE ERROR 2.27491E-03 AT NODE SOIL-1.1060 OF CONTACT PAIR 
   (ASSEMBLY_SOIL-1_BASE_SOIL,ASSEMBLY_FND-1_BOT_F)
          THE CONTACT CONSTRAINTS HAVE CONVERGED.

 AVERAGE FORCE                       3.04       TIME AVG. FORCE        359.    
 LARGEST RESIDUAL FORCE             1.652E-02   AT NODE        193   DOF  2
   INSTANCE: SOIL-1                                                                          
 LARGEST INCREMENT OF DISP.         2.832E-03   AT NODE          1   DOF  1
   INSTANCE: PIER-1                                                                          
 LARGEST CORRECTION TO DISP.       -1.046E-03   AT NODE          1   DOF  1
   INSTANCE: PIER-1                                                                          
 ESTIMATE OF DISP.    CORRECTION    2.627E-09
 FORCE     EQUILIB. ACCEPTED BASED ON SMALL RESIDUAL AND ESTIMATED CORRECTION

 AVERAGE MOMENT                     5.710E-03   TIME AVG. MOMENT      3.816E-03
 LARGEST RESIDUAL MOMENT            8.603E-05   AT NODE          1   DOF  6
   INSTANCE:                                                                                 
 LARGEST INCREMENT OF ROTATION     -4.844E-04   AT NODE          1   DOF  6
   INSTANCE: PIER-1                                                                          
 LARGEST CORRECTION TO ROTATION     1.729E-04   AT NODE          1   DOF  6
   INSTANCE: PIER-1                                                                          
          MOMENT    EQUILIBRIUM NOT ACHIEVED WITHIN TOLERANCE.

  NUMBER OF EQUATIONS =     2220     NUMBER OF FLOATING PT. OPERATIONS =  1.49E+07

     CHECK POINT   START OF SOLVER    

     CHECK POINT  END OF SOLVER       

       ELAPSED USER TIME (SEC)      =   0.0000    
       ELAPSED SYSTEM TIME (SEC)    =   0.0000    
       ELAPSED TOTAL CPU TIME (SEC) =   0.0000    
       ELAPSED WALLCLOCK TIME (SEC) =          0

               CONVERGENCE CHECKS FOR EQUILIBRIUM ITERATION     2

   MAX. PENETRATION ERROR 4.50197E-09 AT NODE SOIL-1.868 OF CONTACT PAIR 
   (ASSEMBLY_SOIL-1_BASE_SOIL,ASSEMBLY_FND-1_BOT_F)
   MAX. SLIP ERROR 236.303E-12   AT NODE SOIL-1.138 OF CONTACT PAIR 
   (ASSEMBLY_SOIL-1_BASE_SOIL,ASSEMBLY_FND-1_BOT_F)
   MAX. CONTACT FORCE ERROR 1.81513E-06 AT NODE SOIL-1.1060 OF CONTACT PAIR 
   (ASSEMBLY_SOIL-1_BASE_SOIL,ASSEMBLY_FND-1_BOT_F)
          THE CONTACT CONSTRAINTS HAVE CONVERGED.

 AVERAGE FORCE                       3.04       TIME AVG. FORCE        359.    
 LARGEST RESIDUAL FORCE             7.423E-05   AT NODE       1109   DOF  2
   INSTANCE: SOIL-1                                                                          
 LARGEST INCREMENT OF DISP.         2.832E-03   AT NODE          1   DOF  1
   INSTANCE: PIER-1                                                                          
 LARGEST CORRECTION TO DISP.        5.474E-06   AT NODE       1493   DOF  1
   INSTANCE: SOIL-1                                                                          
          THE FORCE     EQUILIBRIUM EQUATIONS HAVE CONVERGED

 AVERAGE MOMENT                     5.710E-03   TIME AVG. MOMENT      3.816E-03
 LARGEST RESIDUAL MOMENT           -1.202E-07   AT NODE          1   DOF  6
   INSTANCE:                                                                                 
 LARGEST INCREMENT OF ROTATION     -4.844E-04   AT NODE          1   DOF  6
   INSTANCE: PIER-1                                                                          
 LARGEST CORRECTION TO ROTATION    -2.819E-09   AT NODE          1   DOF  6
   INSTANCE: MASS-1                                                                          
          THE MOMENT    EQUILIBRIUM EQUATIONS HAVE CONVERGED
          TIME INCREMENT MAY NOW INCREASE TO     1.00    

 ITERATION SUMMARY FOR THE INCREMENT:   2 TOTAL ITERATIONS, OF WHICH
   0 ARE SEVERE DISCONTINUITY ITERATIONS AND  2 ARE EQUILIBRIUM ITERATIONS.

 TIME INCREMENT COMPLETED  0.564    ,  FRACTION OF STEP COMPLETED  0.200    
 STEP TIME COMPLETED        2.00    ,  TOTAL TIME COMPLETED         2.00    


  INCREMENT    10 STARTS. ATTEMPT NUMBER  1, TIME INCREMENT   1.00    

  NUMBER OF EQUATIONS =     2220     NUMBER OF FLOATING PT. OPERATIONS =  1.49E+07

     CHECK POINT   START OF SOLVER    

     CHECK POINT  END OF SOLVER       

       ELAPSED USER TIME (SEC)      =   0.0000    
       ELAPSED SYSTEM TIME (SEC)    =   0.0000    
       ELAPSED TOTAL CPU TIME (SEC) =   0.0000    
       ELAPSED WALLCLOCK TIME (SEC) =          0

                    1 SEVERE DISCONTINUITIES OCCURRED DURING THIS ITERATION.
                    1 POINTS CHANGED FROM CLOSED TO OPEN

               CONVERGENCE CHECKS FOR SEVERE DISCONTINUITY ITERATION     1

   MAX. PENETRATION ERROR 1.94444E-06 AT NODE SOIL-1.138 OF CONTACT PAIR 
   (ASSEMBLY_SOIL-1_BASE_SOIL,ASSEMBLY_FND-1_BOT_F)
   MAX. SLIP ERROR 28.2984E-09  AT NODE SOIL-1.138 OF CONTACT PAIR 
   (ASSEMBLY_SOIL-1_BASE_SOIL,ASSEMBLY_FND-1_BOT_F)
   MAX. CONTACT FORCE ERROR 11.1218E-03  AT NODE SOIL-1.138 OF CONTACT PAIR 
   (ASSEMBLY_SOIL-1_BASE_SOIL,ASSEMBLY_FND-1_BOT_F)
          THE CONTACT CONSTRAINT ERRORS ARE WITHIN THE TOLERANCES.

 AVERAGE FORCE                       2.05       TIME AVG. FORCE        324.    
 LARGEST RESIDUAL FORCE             1.553E-02   AT NODE        272   DOF  2
   INSTANCE: SOIL-1                                                                          
 LARGEST INCREMENT OF DISP.         4.087E-03   AT NODE          1   DOF  1
   INSTANCE: MASS-1                                                                          
 LARGEST CORRECTION TO DISP.       -9.330E-04   AT NODE          1   DOF  1
   INSTANCE: PIER-1                                                                          
          DISP.    CORRECTION TOO LARGE COMPARED TO DISP.    INCREMENT

 AVERAGE MOMENT                     5.706E-03   TIME AVG. MOMENT      4.005E-03
 LARGEST RESIDUAL MOMENT            1.849E-04   AT NODE          1   DOF  6
   INSTANCE:                                                                                 
 LARGEST INCREMENT OF ROTATION     -7.293E-04   AT NODE          1   DOF  6
   INSTANCE: MASS-1                                                                          
 LARGEST CORRECTION TO ROTATION     1.296E-04   AT NODE          1   DOF  6
   INSTANCE: PIER-1                                                                          
          MOMENT    EQUILIBRIUM NOT ACHIEVED WITHIN TOLERANCE.

  NUMBER OF EQUATIONS =     2220     NUMBER OF FLOATING PT. OPERATIONS =  1.49E+07

     CHECK POINT   START OF SOLVER    

     CHECK POINT  END OF SOLVER       

       ELAPSED USER TIME (SEC)      =   0.0000    
       ELAPSED SYSTEM TIME (SEC)    =   0.0000    
       ELAPSED TOTAL CPU TIME (SEC) =   0.0000    
       ELAPSED WALLCLOCK TIME (SEC) =          0

               CONVERGENCE CHECKS FOR EQUILIBRIUM ITERATION     1

   MAX. PENETRATION ERROR 255.796E-12   AT NODE SOIL-1.142 OF CONTACT PAIR 
   (ASSEMBLY_SOIL-1_BASE_SOIL,ASSEMBLY_FND-1_BOT_F)
   MAX. SLIP ERROR 1.39695E-09 AT NODE SOIL-1.138 OF CONTACT PAIR 
   (ASSEMBLY_SOIL-1_BASE_SOIL,ASSEMBLY_FND-1_BOT_F)
   MAX. CONTACT FORCE ERROR 676.159E-09   AT NODE SOIL-1.1060 OF CONTACT PAIR 
   (ASSEMBLY_SOIL-1_BASE_SOIL,ASSEMBLY_FND-1_BOT_F)
          THE CONTACT CONSTRAINTS HAVE CONVERGED.

 AVERAGE FORCE                       2.06       TIME AVG. FORCE        324.    
 LARGEST RESIDUAL FORCE             2.245E-04   AT NODE        349   DOF  2
   INSTANCE: SOIL-1                                                                          
 LARGEST INCREMENT OF DISP.         4.087E-03   AT NODE          1   DOF  1
   INSTANCE: MASS-1                                                                          
 LARGEST CORRECTION TO DISP.       -1.169E-05   AT NODE       1108   DOF  2
   INSTANCE: SOIL-1                                                                          
          THE FORCE     EQUILIBRIUM EQUATIONS HAVE CONVERGED

 AVERAGE MOMENT                     5.706E-03   TIME AVG. MOMENT      4.005E-03
 LARGEST RESIDUAL MOMENT           -4.520E-08   AT NODE          1   DOF  6
   INSTANCE:                                                                                 
 LARGEST INCREMENT OF ROTATION     -7.291E-04   AT NODE          1   DOF  6
   INSTANCE: MASS-1                                                                          
 LARGEST CORRECTION TO ROTATION     2.570E-07   AT NODE          1   DOF  6
   INSTANCE: PIER-1                                                                          
          THE MOMENT    EQUILIBRIUM EQUATIONS HAVE CONVERGED

 ITERATION SUMMARY FOR THE INCREMENT:   2 TOTAL ITERATIONS, OF WHICH
   1 ARE SEVERE DISCONTINUITY ITERATIONS AND  1 ARE EQUILIBRIUM ITERATIONS.

 TIME INCREMENT COMPLETED   1.00    ,  FRACTION OF STEP COMPLETED  0.300    
 STEP TIME COMPLETED        3.00    ,  TOTAL TIME COMPLETED         3.00    


  INCREMENT    11 STARTS. ATTEMPT NUMBER  1, TIME INCREMENT   1.00    

                    1 SEVERE DISCONTINUITIES OCCURRED DURING INCREMENT ATTEMPT INITIALIZATION.
                    1 POINTS CHANGED FROM STICKING TO SLIPPING

  NUMBER OF EQUATIONS =     2219     NUMBER OF FLOATING PT. OPERATIONS =  1.48E+07

     CHECK POINT   START OF SOLVER    

     CHECK POINT  END OF SOLVER       

       ELAPSED USER TIME (SEC)      =   0.0000    
       ELAPSED SYSTEM TIME (SEC)    =   0.0000    
       ELAPSED TOTAL CPU TIME (SEC) =   0.0000    
       ELAPSED WALLCLOCK TIME (SEC) =          0

               CONVERGENCE CHECKS FOR EQUILIBRIUM ITERATION     1

   MAX. PENETRATION ERROR 158.413E-09   AT NODE SOIL-1.138 OF CONTACT PAIR 
   (ASSEMBLY_SOIL-1_BASE_SOIL,ASSEMBLY_FND-1_BOT_F)
   MAX. SLIP ERROR 6.16290E-09 AT NODE SOIL-1.138 OF CONTACT PAIR 
   (ASSEMBLY_SOIL-1_BASE_SOIL,ASSEMBLY_FND-1_BOT_F)
   MAX. CONTACT FORCE ERROR 917.274E-06   AT NODE SOIL-1.138 OF CONTACT PAIR 
   (ASSEMBLY_SOIL-1_BASE_SOIL,ASSEMBLY_FND-1_BOT_F)
          THE CONTACT CONSTRAINTS HAVE CONVERGED.

 AVERAGE FORCE                       1.33       TIME AVG. FORCE        294.    
 LARGEST RESIDUAL FORCE             5.435E-03   AT NODE       1109   DOF  1
   INSTANCE: SOIL-1                                                                          
 LARGEST INCREMENT OF DISP.         4.370E-03   AT NODE          1   DOF  1
   INSTANCE: PIER-1                                                                          
 LARGEST CORRECTION TO DISP.        2.834E-04   AT NODE          1   DOF  1
   INSTANCE: PIER-1                                                                          
 ESTIMATE OF DISP.    CORRECTION    2.721E-09
 FORCE     EQUILIB. ACCEPTED BASED ON SMALL RESIDUAL AND ESTIMATED CORRECTION

 AVERAGE MOMENT                     7.058E-03   TIME AVG. MOMENT      4.282E-03
 LARGEST RESIDUAL MOMENT           -1.918E-05   AT NODE          1   DOF  6
   INSTANCE:                                                                                 
 LARGEST INCREMENT OF ROTATION     -7.651E-04   AT NODE          1   DOF  6
   INSTANCE: PIER-1                                                                          
 LARGEST CORRECTION TO ROTATION    -3.611E-05   AT NODE          1   DOF  6
   INSTANCE: PIER-1                                                                          
 ESTIMATE OF ROTATION CORRECTION   -4.120E-09
 MOMENT    EQUILIB. ACCEPTED BASED ON SMALL RESIDUAL AND ESTIMATED CORRECTION

 ITERATION SUMMARY FOR THE INCREMENT:   1 TOTAL ITERATIONS, OF WHICH
   0 ARE SEVERE DISCONTINUITY ITERATIONS AND  1 ARE EQUILIBRIUM ITERATIONS.

 TIME INCREMENT COMPLETED   1.00    ,  FRACTION OF STEP COMPLETED  0.400    
 STEP TIME COMPLETED        4.00    ,  TOTAL TIME COMPLETED         4.00    


  INCREMENT    12 STARTS. ATTEMPT NUMBER  1, TIME INCREMENT   1.00    

  NUMBER OF EQUATIONS =     2219     NUMBER OF FLOATING PT. OPERATIONS =  1.48E+07

     CHECK POINT   START OF SOLVER    

     CHECK POINT  END OF SOLVER       

       ELAPSED USER TIME (SEC)      =   0.0000    
       ELAPSED SYSTEM TIME (SEC)    =   0.0000    
       ELAPSED TOTAL CPU TIME (SEC) =   0.0000    
       ELAPSED WALLCLOCK TIME (SEC) =          0

                    1 SEVERE DISCONTINUITIES OCCURRED DURING THIS ITERATION.
                    1 POINTS CHANGED FROM SLIPPING TO STICKING

               CONVERGENCE CHECKS FOR SEVERE DISCONTINUITY ITERATION     1

   MAX. PENETRATION ERROR 150.479E-09   AT NODE SOIL-1.1060 OF CONTACT PAIR 
   (ASSEMBLY_SOIL-1_BASE_SOIL,ASSEMBLY_FND-1_BOT_F)
   MAX. SLIP ERROR 7.47993E-06 AT NODE SOIL-1.141 OF CONTACT PAIR 
   (ASSEMBLY_SOIL-1_BASE_SOIL,ASSEMBLY_FND-1_BOT_F)
   MAX. CONTACT FORCE ERROR 1.54190E-03 AT NODE SOIL-1.1060 OF CONTACT PAIR 
   (ASSEMBLY_SOIL-1_BASE_SOIL,ASSEMBLY_FND-1_BOT_F)
          THE CONTACT CONSTRAINT ERRORS ARE WITHIN THE TOLERANCES.

 AVERAGE FORCE                      0.737       TIME AVG. FORCE        270.    
 LARGEST RESIDUAL FORCE             0.233       AT NODE          1   DOF  1
   INSTANCE:                                                                                 
 LARGEST INCREMENT OF DISP.         3.495E-03   AT NODE          1   DOF  1
   INSTANCE: MASS-1                                                                          
 LARGEST CORRECTION TO DISP.       -8.756E-04   AT NODE          1   DOF  1
   INSTANCE: PIER-1                                                                          
          DISP.    CORRECTION TOO LARGE COMPARED TO DISP.    INCREMENT

 AVERAGE MOMENT                     1.703E-06   TIME AVG. MOMENT      3.925E-03
 LARGEST RESIDUAL MOMENT            0.116       AT NODE          1   DOF  6
   INSTANCE:                                                                                 
 LARGEST INCREMENT OF ROTATION     -6.218E-04   AT NODE          1   DOF  6
   INSTANCE: MASS-1                                                                          
 LARGEST CORRECTION TO ROTATION     1.433E-04   AT NODE          1   DOF  6
   INSTANCE: PIER-1                                                                          
          MOMENT    EQUILIBRIUM NOT ACHIEVED WITHIN TOLERANCE.

  NUMBER OF EQUATIONS =     2220     NUMBER OF FLOATING PT. OPERATIONS =  1.49E+07

     CHECK POINT   START OF SOLVER    

     CHECK POINT  END OF SOLVER       

       ELAPSED USER TIME (SEC)      =  0.10000    
       ELAPSED SYSTEM TIME (SEC)    =   0.0000    
       ELAPSED TOTAL CPU TIME (SEC) =  0.10000    
       ELAPSED WALLCLOCK TIME (SEC) =          0

               CONVERGENCE CHECKS FOR EQUILIBRIUM ITERATION     1

   MAX. PENETRATION ERROR 40.8569E-12  AT NODE SOIL-1.142 OF CONTACT PAIR 
   (ASSEMBLY_SOIL-1_BASE_SOIL,ASSEMBLY_FND-1_BOT_F)
   MAX. SLIP ERROR 121.162E-12   AT NODE SOIL-1.1060 OF CONTACT PAIR 
   (ASSEMBLY_SOIL-1_BASE_SOIL,ASSEMBLY_FND-1_BOT_F)
   MAX. CONTACT FORCE ERROR 267.160E-09   AT NODE SOIL-1.1012 OF CONTACT PAIR 
   (ASSEMBLY_SOIL-1_BASE_SOIL,ASSEMBLY_FND-1_BOT_F)
          THE CONTACT CONSTRAINTS HAVE CONVERGED.

 AVERAGE FORCE                      0.737       TIME AVG. FORCE        270.    
 LARGEST RESIDUAL FORCE            -1.320E-04   AT NODE        608   DOF  1
   INSTANCE: SOIL-1                                                                          
 LARGEST INCREMENT OF DISP.         3.495E-03   AT NODE          1   DOF  1
   INSTANCE: MASS-1                                                                          
 LARGEST CORRECTION TO DISP.       -6.294E-06   AT NODE        141   DOF  1
   INSTANCE: SOIL-1                                                                          
          THE FORCE     EQUILIBRIUM EQUATIONS HAVE CONVERGED

 AVERAGE MOMENT                     1.702E-06   TIME AVG. MOMENT      3.925E-03
 LARGEST RESIDUAL MOMENT           -1.265E-06   AT NODE          1   DOF  6
   INSTANCE:                                                                                 
 LARGEST INCREMENT OF ROTATION     -6.212E-04   AT NODE          1   DOF  6
   INSTANCE: MASS-1                                                                          
 LARGEST CORRECTION TO ROTATION     6.519E-07   AT NODE          1   DOF  6
   INSTANCE: PIER-1                                                                          
          THE MOMENT    EQUILIBRIUM EQUATIONS HAVE CONVERGED

 ITERATION SUMMARY FOR THE INCREMENT:   2 TOTAL ITERATIONS, OF WHICH
   1 ARE SEVERE DISCONTINUITY ITERATIONS AND  1 ARE EQUILIBRIUM ITERATIONS.

 TIME INCREMENT COMPLETED   1.00    ,  FRACTION OF STEP COMPLETED  0.500    
 STEP TIME COMPLETED        5.00    ,  TOTAL TIME COMPLETED         5.00    


  INCREMENT    13 STARTS. ATTEMPT NUMBER  1, TIME INCREMENT   1.00    

                    1 SEVERE DISCONTINUITIES OCCURRED DURING INCREMENT ATTEMPT INITIALIZATION.
                    1 POINTS CHANGED FROM STICKING TO SLIPPING

  NUMBER OF EQUATIONS =     2219     NUMBER OF FLOATING PT. OPERATIONS =  1.48E+07

     CHECK POINT   START OF SOLVER    

     CHECK POINT  END OF SOLVER       

       ELAPSED USER TIME (SEC)      =   0.0000    
       ELAPSED SYSTEM TIME (SEC)    =   0.0000    
       ELAPSED TOTAL CPU TIME (SEC) =   0.0000    
       ELAPSED WALLCLOCK TIME (SEC) =          0

               CONVERGENCE CHECKS FOR EQUILIBRIUM ITERATION     1

   MAX. PENETRATION ERROR 24.9850E-09  AT NODE SOIL-1.1060 OF CONTACT PAIR 
   (ASSEMBLY_SOIL-1_BASE_SOIL,ASSEMBLY_FND-1_BOT_F)
   MAX. SLIP ERROR 1.63768E-09 AT NODE SOIL-1.964 OF CONTACT PAIR 
   (ASSEMBLY_SOIL-1_BASE_SOIL,ASSEMBLY_FND-1_BOT_F)
   MAX. CONTACT FORCE ERROR 258.554E-06   AT NODE SOIL-1.1060 OF CONTACT PAIR 
   (ASSEMBLY_SOIL-1_BASE_SOIL,ASSEMBLY_FND-1_BOT_F)
          THE CONTACT CONSTRAINTS HAVE CONVERGED.

 AVERAGE FORCE                       1.82       TIME AVG. FORCE        249.    
 LARGEST RESIDUAL FORCE            -3.269E-03   AT NODE        631   DOF  2
   INSTANCE: SOIL-1                                                                          
 LARGEST INCREMENT OF DISP.         4.247E-03   AT NODE          1   DOF  1
   INSTANCE: MASS-1                                                                          
 LARGEST CORRECTION TO DISP.        7.517E-04   AT NODE          1   DOF  1
   INSTANCE: MASS-1                                                                          
 ESTIMATE OF DISP.    CORRECTION   -1.634E-09
 FORCE     EQUILIB. ACCEPTED BASED ON SMALL RESIDUAL AND ESTIMATED CORRECTION

 AVERAGE MOMENT                     3.526E-03   TIME AVG. MOMENT      3.895E-03
 LARGEST RESIDUAL MOMENT           -3.030E-05   AT NODE          1   DOF  6
   INSTANCE:                                                                                 
 LARGEST INCREMENT OF ROTATION     -7.722E-04   AT NODE          1   DOF  6
   INSTANCE: MASS-1                                                                          
 LARGEST CORRECTION TO ROTATION    -1.510E-04   AT NODE          1   DOF  6
   INSTANCE: MASS-1                                                                          
          MOMENT    EQUILIBRIUM NOT ACHIEVED WITHIN TOLERANCE.

  NUMBER OF EQUATIONS =     2219     NUMBER OF FLOATING PT. OPERATIONS =  1.48E+07

     CHECK POINT   START OF SOLVER    

     CHECK POINT  END OF SOLVER       

       ELAPSED USER TIME (SEC)      =   0.0000    
       ELAPSED SYSTEM TIME (SEC)    =   0.0000    
       ELAPSED TOTAL CPU TIME (SEC) =   0.0000    
       ELAPSED WALLCLOCK TIME (SEC) =          0

               CONVERGENCE CHECKS FOR EQUILIBRIUM ITERATION     2

   MAX. PENETRATION ERROR 145.609E-12   AT NODE SOIL-1.142 OF CONTACT PAIR 
   (ASSEMBLY_SOIL-1_BASE_SOIL,ASSEMBLY_FND-1_BOT_F)
   MAX. SLIP ERROR 45.8855E-12  AT NODE SOIL-1.139 OF CONTACT PAIR 
   (ASSEMBLY_SOIL-1_BASE_SOIL,ASSEMBLY_FND-1_BOT_F)
   MAX. CONTACT FORCE ERROR 556.369E-09   AT NODE SOIL-1.142 OF CONTACT PAIR 
   (ASSEMBLY_SOIL-1_BASE_SOIL,ASSEMBLY_FND-1_BOT_F)
          THE CONTACT CONSTRAINTS HAVE CONVERGED.

 AVERAGE FORCE                       1.82       TIME AVG. FORCE        249.    
 LARGEST RESIDUAL FORCE            -1.420E-04   AT NODE        631   DOF  1
   INSTANCE: SOIL-1                                                                          
 LARGEST INCREMENT OF DISP.         4.247E-03   AT NODE          1   DOF  1
   INSTANCE: MASS-1                                                                          
 LARGEST CORRECTION TO DISP.        2.474E-06   AT NODE        137   DOF  2
   INSTANCE: SOIL-1                                                                          
          THE FORCE     EQUILIBRIUM EQUATIONS HAVE CONVERGED

 AVERAGE MOMENT                     3.526E-03   TIME AVG. MOMENT      3.895E-03
 LARGEST RESIDUAL MOMENT           -3.019E-08   AT NODE          1   DOF  6
   INSTANCE:                                                                                 
 LARGEST INCREMENT OF ROTATION     -7.723E-04   AT NODE          1   DOF  6
   INSTANCE: MASS-1                                                                          
 LARGEST CORRECTION TO ROTATION    -1.250E-07   AT NODE          1   DOF  6
   INSTANCE: MASS-1                                                                          
          THE MOMENT    EQUILIBRIUM EQUATIONS HAVE CONVERGED

 ITERATION SUMMARY FOR THE INCREMENT:   2 TOTAL ITERATIONS, OF WHICH
   0 ARE SEVERE DISCONTINUITY ITERATIONS AND  2 ARE EQUILIBRIUM ITERATIONS.

 TIME INCREMENT COMPLETED   1.00    ,  FRACTION OF STEP COMPLETED  0.600    
 STEP TIME COMPLETED        6.00    ,  TOTAL TIME COMPLETED         6.00    


  INCREMENT    14 STARTS. ATTEMPT NUMBER  1, TIME INCREMENT   1.00    

  NUMBER OF EQUATIONS =     2219     NUMBER OF FLOATING PT. OPERATIONS =  1.48E+07

     CHECK POINT   START OF SOLVER    

     CHECK POINT  END OF SOLVER       

       ELAPSED USER TIME (SEC)      =   0.0000    
       ELAPSED SYSTEM TIME (SEC)    =   0.0000    
       ELAPSED TOTAL CPU TIME (SEC) =   0.0000    
       ELAPSED WALLCLOCK TIME (SEC) =          0

               CONVERGENCE CHECKS FOR EQUILIBRIUM ITERATION     1

   MAX. PENETRATION ERROR 13.6838E-09  AT NODE SOIL-1.1012 OF CONTACT PAIR 
   (ASSEMBLY_SOIL-1_BASE_SOIL,ASSEMBLY_FND-1_BOT_F)
   MAX. SLIP ERROR 2.53199E-09 AT NODE SOIL-1.140 OF CONTACT PAIR 
   (ASSEMBLY_SOIL-1_BASE_SOIL,ASSEMBLY_FND-1_BOT_F)
   MAX. CONTACT FORCE ERROR 155.882E-06   AT NODE SOIL-1.1012 OF CONTACT PAIR 
   (ASSEMBLY_SOIL-1_BASE_SOIL,ASSEMBLY_FND-1_BOT_F)
          THE CONTACT CONSTRAINTS HAVE CONVERGED.

 AVERAGE FORCE                       2.35       TIME AVG. FORCE        232.    
 LARGEST RESIDUAL FORCE            -2.447E-03   AT NODE        699   DOF  2
   INSTANCE: SOIL-1                                                                          
 LARGEST INCREMENT OF DISP.         3.892E-03   AT NODE          1   DOF  1
   INSTANCE: PIER-1                                                                          
 LARGEST CORRECTION TO DISP.       -3.551E-04   AT NODE          1   DOF  1
   INSTANCE: MASS-1                                                                          
 ESTIMATE OF DISP.    CORRECTION   -1.223E-09
 FORCE     EQUILIB. ACCEPTED BASED ON SMALL RESIDUAL AND ESTIMATED CORRECTION

 AVERAGE MOMENT                     5.710E-03   TIME AVG. MOMENT      4.024E-03
 LARGEST RESIDUAL MOMENT            9.719E-06   AT NODE          1   DOF  6
   INSTANCE:                                                                                 
 LARGEST INCREMENT OF ROTATION     -6.911E-04   AT NODE          1   DOF  6
   INSTANCE: PIER-1                                                                          
 LARGEST CORRECTION TO ROTATION     8.124E-05   AT NODE          1   DOF  6
   INSTANCE: MASS-1                                                                          
 ESTIMATE OF ROTATION CORRECTION    2.020E-08
 MOMENT    EQUILIB. ACCEPTED BASED ON SMALL RESIDUAL AND ESTIMATED CORRECTION

 ITERATION SUMMARY FOR THE INCREMENT:   1 TOTAL ITERATIONS, OF WHICH
   0 ARE SEVERE DISCONTINUITY ITERATIONS AND  1 ARE EQUILIBRIUM ITERATIONS.

 TIME INCREMENT COMPLETED   1.00    ,  FRACTION OF STEP COMPLETED  0.700    
 STEP TIME COMPLETED        7.00    ,  TOTAL TIME COMPLETED         7.00    


  INCREMENT    15 STARTS. ATTEMPT NUMBER  1, TIME INCREMENT   1.00    

                    1 SEVERE DISCONTINUITIES OCCURRED DURING INCREMENT ATTEMPT INITIALIZATION.
                    1 POINTS CHANGED FROM STICKING TO SLIPPING

  NUMBER OF EQUATIONS =     2218     NUMBER OF FLOATING PT. OPERATIONS =  1.48E+07

     CHECK POINT   START OF SOLVER    

     CHECK POINT  END OF SOLVER       

       ELAPSED USER TIME (SEC)      =   0.0000    
       ELAPSED SYSTEM TIME (SEC)    =   0.0000    
       ELAPSED TOTAL CPU TIME (SEC) =   0.0000    
       ELAPSED WALLCLOCK TIME (SEC) =          0

                    1 SEVERE DISCONTINUITIES OCCURRED DURING THIS ITERATION.
                    1 POINTS CHANGED FROM SLIPPING TO STICKING

               CONVERGENCE CHECKS FOR SEVERE DISCONTINUITY ITERATION     1

   MAX. PENETRATION ERROR 16.2093E-09  AT NODE SOIL-1.140 OF CONTACT PAIR 
   (ASSEMBLY_SOIL-1_BASE_SOIL,ASSEMBLY_FND-1_BOT_F)
   MAX. SLIP ERROR 4.73035E-06 AT NODE SOIL-1.964 OF CONTACT PAIR 
   (ASSEMBLY_SOIL-1_BASE_SOIL,ASSEMBLY_FND-1_BOT_F)
   MAX. CONTACT FORCE ERROR 177.555E-06   AT NODE SOIL-1.140 OF CONTACT PAIR 
   (ASSEMBLY_SOIL-1_BASE_SOIL,ASSEMBLY_FND-1_BOT_F)
          THE CONTACT CONSTRAINT ERRORS ARE WITHIN THE TOLERANCES.

 AVERAGE FORCE                       2.13       TIME AVG. FORCE        216.    
 LARGEST RESIDUAL FORCE             0.134       AT NODE          1   DOF  1
   INSTANCE:                                                                                 
 LARGEST INCREMENT OF DISP.         3.699E-03   AT NODE          1   DOF  1
   INSTANCE: MASS-1                                                                          
 LARGEST CORRECTION TO DISP.       -1.925E-04   AT NODE          1   DOF  1
   INSTANCE: PIER-1                                                                          
          DISP.    CORRECTION TOO LARGE COMPARED TO DISP.    INCREMENT

 AVERAGE MOMENT                     5.704E-03   TIME AVG. MOMENT      4.136E-03
 LARGEST RESIDUAL MOMENT            6.666E-02   AT NODE          1   DOF  6
   INSTANCE:                                                                                 
 LARGEST INCREMENT OF ROTATION     -6.676E-04   AT NODE          1   DOF  6
   INSTANCE: MASS-1                                                                          
 LARGEST CORRECTION TO ROTATION     2.353E-05   AT NODE          1   DOF  6
   INSTANCE: PIER-1                                                                          
          MOMENT    EQUILIBRIUM NOT ACHIEVED WITHIN TOLERANCE.

  NUMBER OF EQUATIONS =     2219     NUMBER OF FLOATING PT. OPERATIONS =  1.48E+07

     CHECK POINT   START OF SOLVER    

     CHECK POINT  END OF SOLVER       

       ELAPSED USER TIME (SEC)      =   0.0000    
       ELAPSED SYSTEM TIME (SEC)    =   0.0000    
       ELAPSED TOTAL CPU TIME (SEC) =   0.0000    
       ELAPSED WALLCLOCK TIME (SEC) =          0

               CONVERGENCE CHECKS FOR EQUILIBRIUM ITERATION     1

   MAX. PENETRATION ERROR 9.38124E-12 AT NODE SOIL-1.916 OF CONTACT PAIR 
   (ASSEMBLY_SOIL-1_BASE_SOIL,ASSEMBLY_FND-1_BOT_F)
   MAX. SLIP ERROR 26.4110E-12  AT NODE SOIL-1.964 OF CONTACT PAIR 
   (ASSEMBLY_SOIL-1_BASE_SOIL,ASSEMBLY_FND-1_BOT_F)
   MAX. CONTACT FORCE ERROR 85.0433E-09  AT NODE SOIL-1.916 OF CONTACT PAIR 
   (ASSEMBLY_SOIL-1_BASE_SOIL,ASSEMBLY_FND-1_BOT_F)
          THE CONTACT CONSTRAINTS HAVE CONVERGED.

 AVERAGE FORCE                       2.13       TIME AVG. FORCE        216.    
 LARGEST RESIDUAL FORCE            -6.510E-05   AT NODE       1159   DOF  1
   INSTANCE: SOIL-1                                                                          
 LARGEST INCREMENT OF DISP.         3.699E-03   AT NODE          1   DOF  1
   INSTANCE: MASS-1                                                                          
 LARGEST CORRECTION TO DISP.       -4.095E-06   AT NODE        964   DOF  1
   INSTANCE: SOIL-1                                                                          
          THE FORCE     EQUILIBRIUM EQUATIONS HAVE CONVERGED

 AVERAGE MOMENT                     5.704E-03   TIME AVG. MOMENT      4.136E-03
 LARGEST RESIDUAL MOMENT           -6.343E-07   AT NODE          1   DOF  6
   INSTANCE:                                                                                 
 LARGEST INCREMENT OF ROTATION     -6.672E-04   AT NODE          1   DOF  6
   INSTANCE: MASS-1                                                                          
 LARGEST CORRECTION TO ROTATION     3.922E-07   AT NODE          1   DOF  6
   INSTANCE: {assembly node}                                                                 
          THE MOMENT    EQUILIBRIUM EQUATIONS HAVE CONVERGED

 ITERATION SUMMARY FOR THE INCREMENT:   2 TOTAL ITERATIONS, OF WHICH
   1 ARE SEVERE DISCONTINUITY ITERATIONS AND  1 ARE EQUILIBRIUM ITERATIONS.

 TIME INCREMENT COMPLETED   1.00    ,  FRACTION OF STEP COMPLETED  0.800    
 STEP TIME COMPLETED        8.00    ,  TOTAL TIME COMPLETED         8.00    


  INCREMENT    16 STARTS. ATTEMPT NUMBER  1, TIME INCREMENT   1.00    

                    1 SEVERE DISCONTINUITIES OCCURRED DURING INCREMENT ATTEMPT INITIALIZATION.
                    1 POINTS CHANGED FROM STICKING TO SLIPPING

  NUMBER OF EQUATIONS =     2218     NUMBER OF FLOATING PT. OPERATIONS =  1.48E+07

     CHECK POINT   START OF SOLVER    

     CHECK POINT  END OF SOLVER       

       ELAPSED USER TIME (SEC)      =   0.0000    
       ELAPSED SYSTEM TIME (SEC)    =   0.0000    
       ELAPSED TOTAL CPU TIME (SEC) =   0.0000    
       ELAPSED WALLCLOCK TIME (SEC) =          0

               CONVERGENCE CHECKS FOR EQUILIBRIUM ITERATION     1

   MAX. PENETRATION ERROR 11.8004E-09  AT NODE SOIL-1.142 OF CONTACT PAIR 
   (ASSEMBLY_SOIL-1_BASE_SOIL,ASSEMBLY_FND-1_BOT_F)
   MAX. SLIP ERROR 5.52887E-09 AT NODE SOIL-1.140 OF CONTACT PAIR 
   (ASSEMBLY_SOIL-1_BASE_SOIL,ASSEMBLY_FND-1_BOT_F)
   MAX. CONTACT FORCE ERROR -110.118E-06   AT NODE SOIL-1.964 OF CONTACT PAIR 
   (ASSEMBLY_SOIL-1_BASE_SOIL,ASSEMBLY_FND-1_BOT_F)
          THE CONTACT CONSTRAINTS HAVE CONVERGED.

 AVERAGE FORCE                       1.42       TIME AVG. FORCE        203.    
 LARGEST RESIDUAL FORCE            -3.106E-03   AT NODE        140   DOF  2
   INSTANCE: SOIL-1                                                                          
 LARGEST INCREMENT OF DISP.         4.350E-03   AT NODE          1   DOF  1
   INSTANCE: PIER-1                                                                          
 LARGEST CORRECTION TO DISP.        6.507E-04   AT NODE          1   DOF  1
   INSTANCE: PIER-1                                                                          
 ESTIMATE OF DISP.    CORRECTION   -1.554E-09
 FORCE     EQUILIB. ACCEPTED BASED ON SMALL RESIDUAL AND ESTIMATED CORRECTION

 AVERAGE MOMENT                     7.058E-03   TIME AVG. MOMENT      4.319E-03
 LARGEST RESIDUAL MOMENT           -1.341E-05   AT NODE          1   DOF  6
   INSTANCE:                                                                                 
 LARGEST INCREMENT OF ROTATION     -7.754E-04   AT NODE          1   DOF  6
   INSTANCE: PIER-1                                                                          
 LARGEST CORRECTION TO ROTATION    -1.083E-04   AT NODE          1   DOF  6
   INSTANCE: PIER-1                                                                          
 ESTIMATE OF ROTATION CORRECTION    1.272E-08
 MOMENT    EQUILIB. ACCEPTED BASED ON SMALL RESIDUAL AND ESTIMATED CORRECTION

 ITERATION SUMMARY FOR THE INCREMENT:   1 TOTAL ITERATIONS, OF WHICH
   0 ARE SEVERE DISCONTINUITY ITERATIONS AND  1 ARE EQUILIBRIUM ITERATIONS.

 TIME INCREMENT COMPLETED   1.00    ,  FRACTION OF STEP COMPLETED  0.900    
 STEP TIME COMPLETED        9.00    ,  TOTAL TIME COMPLETED         9.00    


  INCREMENT    17 STARTS. ATTEMPT NUMBER  1, TIME INCREMENT   1.00    

  NUMBER OF EQUATIONS =     2218     NUMBER OF FLOATING PT. OPERATIONS =  1.48E+07

     CHECK POINT   START OF SOLVER    

     CHECK POINT  END OF SOLVER       

       ELAPSED USER TIME (SEC)      =   0.0000    
       ELAPSED SYSTEM TIME (SEC)    =   0.0000    
       ELAPSED TOTAL CPU TIME (SEC) =   0.0000    
       ELAPSED WALLCLOCK TIME (SEC) =          0

               CONVERGENCE CHECKS FOR EQUILIBRIUM ITERATION     1

   MAX. PENETRATION ERROR 15.6932E-09  AT NODE SOIL-1.142 OF CONTACT PAIR 
   (ASSEMBLY_SOIL-1_BASE_SOIL,ASSEMBLY_FND-1_BOT_F)
   MAX. SLIP ERROR 1.44607E-09 AT NODE SOIL-1.140 OF CONTACT PAIR 
   (ASSEMBLY_SOIL-1_BASE_SOIL,ASSEMBLY_FND-1_BOT_F)
   MAX. CONTACT FORCE ERROR 85.7620E-06  AT NODE SOIL-1.142 OF CONTACT PAIR 
   (ASSEMBLY_SOIL-1_BASE_SOIL,ASSEMBLY_FND-1_BOT_F)
          THE CONTACT CONSTRAINTS HAVE CONVERGED.

 AVERAGE FORCE                      0.847       TIME AVG. FORCE        191.    
 LARGEST RESIDUAL FORCE             2.205E-03   AT NODE       1321   DOF  1
   INSTANCE: SOIL-1                                                                          
 LARGEST INCREMENT OF DISP.         3.473E-03   AT NODE          1   DOF  1
   INSTANCE: MASS-1                                                                          
 LARGEST CORRECTION TO DISP.       -8.766E-04   AT NODE          1   DOF  1
   INSTANCE: PIER-1                                                                          
 ESTIMATE OF DISP.    CORRECTION    1.103E-09
 FORCE     EQUILIB. ACCEPTED BASED ON SMALL RESIDUAL AND ESTIMATED CORRECTION

 AVERAGE MOMENT                     2.319E-06   TIME AVG. MOMENT      4.065E-03
 LARGEST RESIDUAL MOMENT            2.043E-05   AT NODE          1   DOF  6
   INSTANCE:                                                                                 
 LARGEST INCREMENT OF ROTATION     -6.134E-04   AT NODE          1   DOF  6
   INSTANCE: MASS-1                                                                          
 LARGEST CORRECTION TO ROTATION     1.621E-04   AT NODE          1   DOF  6
   INSTANCE: PIER-1                                                                          
          MOMENT    EQUILIBRIUM NOT ACHIEVED WITHIN TOLERANCE.

  NUMBER OF EQUATIONS =     2218     NUMBER OF FLOATING PT. OPERATIONS =  1.48E+07

     CHECK POINT   START OF SOLVER    

     CHECK POINT  END OF SOLVER       

       ELAPSED USER TIME (SEC)      =  0.10000    
       ELAPSED SYSTEM TIME (SEC)    =   0.0000    
       ELAPSED TOTAL CPU TIME (SEC) =  0.10000    
       ELAPSED WALLCLOCK TIME (SEC) =          0

               CONVERGENCE CHECKS FOR EQUILIBRIUM ITERATION     2

   MAX. PENETRATION ERROR 53.4982E-12  AT NODE SOIL-1.142 OF CONTACT PAIR 
   (ASSEMBLY_SOIL-1_BASE_SOIL,ASSEMBLY_FND-1_BOT_F)
   MAX. SLIP ERROR 18.0326E-12  AT NODE SOIL-1.140 OF CONTACT PAIR 
   (ASSEMBLY_SOIL-1_BASE_SOIL,ASSEMBLY_FND-1_BOT_F)
   MAX. CONTACT FORCE ERROR 292.134E-09   AT NODE SOIL-1.142 OF CONTACT PAIR 
   (ASSEMBLY_SOIL-1_BASE_SOIL,ASSEMBLY_FND-1_BOT_F)
          THE CONTACT CONSTRAINTS HAVE CONVERGED.

 AVERAGE FORCE                      0.847       TIME AVG. FORCE        191.    
 LARGEST RESIDUAL FORCE             6.323E-05   AT NODE       1159   DOF  1
   INSTANCE: SOIL-1                                                                          
 LARGEST INCREMENT OF DISP.         3.473E-03   AT NODE          1   DOF  1
   INSTANCE: MASS-1                                                                          
 LARGEST CORRECTION TO DISP.       -4.375E-06   AT NODE        964   DOF  1
   INSTANCE: SOIL-1                                                                          
          THE FORCE     EQUILIBRIUM EQUATIONS HAVE CONVERGED

 AVERAGE MOMENT                     2.319E-06   TIME AVG. MOMENT      4.065E-03
 LARGEST RESIDUAL MOMENT           -3.048E-08   AT NODE          1   DOF  6
   INSTANCE:                                                                                 
 LARGEST INCREMENT OF ROTATION     -6.134E-04   AT NODE          1   DOF  6
   INSTANCE: MASS-1                                                                          
 LARGEST CORRECTION TO ROTATION    -8.839E-09   AT NODE          2   DOF  6
   INSTANCE: PIER-1                                                                          
          THE MOMENT    EQUILIBRIUM EQUATIONS HAVE CONVERGED

 ITERATION SUMMARY FOR THE INCREMENT:   2 TOTAL ITERATIONS, OF WHICH
   0 ARE SEVERE DISCONTINUITY ITERATIONS AND  2 ARE EQUILIBRIUM ITERATIONS.

 TIME INCREMENT COMPLETED   1.00    ,  FRACTION OF STEP COMPLETED   1.00    
 STEP TIME COMPLETED        10.0    ,  TOTAL TIME COMPLETED         10.0    


          THE ANALYSIS HAS BEEN COMPLETED



     ANALYSIS SUMMARY:
     TOTAL OF         17  INCREMENTS
                       0  CUTBACKS IN AUTOMATIC INCREMENTATION
                      34  ITERATIONS INCLUDING CONTACT ITERATIONS IF PRESENT
                      34  PASSES THROUGH THE EQUATION SOLVER OF WHICH 
                      34  INVOLVE MATRIX DECOMPOSITION, INCLUDING
                       0  DECOMPOSITION(S) OF THE MASS MATRIX
                       1  REORDERING OF EQUATIONS TO MINIMIZE WAVEFRONT
                       0  ADDITIONAL RESIDUAL EVALUATIONS FOR LINE SEARCHES
                       0  ADDITIONAL OPERATOR EVALUATIONS FOR LINE SEARCHES
                      95  WARNING MESSAGES DURING USER INPUT PROCESSING
                       0  WARNING MESSAGES DURING ANALYSIS
                       0  ANALYSIS WARNINGS ARE NUMERICAL PROBLEM MESSAGES
                       0  ANALYSIS WARNINGS ARE NEGATIVE EIGENVALUE MESSAGES
                       0  ERROR MESSAGES



     JOB TIME SUMMARY
       USER TIME (SEC)      =   7.2000    
       SYSTEM TIME (SEC)    =  0.30000    
       TOTAL CPU TIME (SEC) =   7.5000    
       WALLCLOCK TIME (SEC) =          7
