 Abaqus/Standard 6.14-1                  DATE 03-May-2016 TIME 11:40:39
 SUMMARY OF JOB INFORMATION:
 STEP  INC ATT SEVERE EQUIL TOTAL  TOTAL      STEP       INC OF       DOF    IF
               DISCON ITERS ITERS  TIME/    TIME/LPF    TIME/LPF    MONITOR RIKS
               ITERS               FREQ
   1     1   1     0     2     2  0.0500     0.0500     0.05000   
   1     2   1     1     1     2  0.100      0.100      0.05000   
   1     3   1     1     2     3  0.175      0.175      0.07500   
   1     4   1     0     2     2  0.288      0.288      0.1125    
   1     5   1     2     1     3  0.456      0.456      0.1688    
   1     6   1     2     1     3  0.709      0.709      0.2531    
   1     7   1     1     1     2  1.00       1.00       0.2906    
   1     8   1     1     1     2  1.44       1.44       0.4359    
   1     9   1     0     2     2  2.00       2.00       0.5641    
   1    10   1     1     1     2  3.00       3.00       1.000     
   1    11   1     0     1     1  4.00       4.00       1.000     
   1    12   1     1     1     2  5.00       5.00       1.000     
   1    13   1     0     2     2  6.00       6.00       1.000     
   1    14   1     0     1     1  7.00       7.00       1.000     
   1    15   1     1     1     2  8.00       8.00       1.000     
   1    16   1     0     1     1  9.00       9.00       1.000     
   1    17   1     0     2     2  10.0       10.0       1.000     
                          
 THE ANALYSIS HAS COMPLETED SUCCESSFULLY
