*Heading
** Job name: REALv1 Model name: Real_v1
** Generated by: Abaqus/CAE 6.14-1
*Preprint, echo=NO, model=NO, history=NO, contact=NO
**
** PARTS
**
*Part, name=FOOTING
*Node
      1,          10.,           6.
      2,         9.75,           6.
      3,          9.5,           6.
      4,         9.25,           6.
      5,           9.,           6.
      6,         8.75,           6.
      7,          8.5,           6.
      8,         8.25,           6.
      9,           8.,           6.
     10,         7.75,           6.
     11,          7.5,           6.
     12,         7.25,           6.
     13,           7.,           6.
     14,         6.75,           6.
     15,          6.5,           6.
     16,         6.25,           6.
     17,           6.,           6.
     18,          10.,         5.75
     19,         9.75,         5.75
     20,          9.5,         5.75
** ... 31 like lines cut
*Element, type=CPE4R
 1,  1,  2, 19, 18
 2,  2,  3, 20, 19
 3,  3,  4, 21, 20
 4,  4,  5, 22, 21
 5,  5,  6, 23, 22
 6,  6,  7, 24, 23
 7,  7,  8, 25, 24
 8,  8,  9, 26, 25
 9,  9, 10, 27, 26
10, 10, 11, 28, 27
11, 11, 12, 29, 28
12, 12, 13, 30, 29
13, 13, 14, 31, 30
14, 14, 15, 32, 31
15, 15, 16, 33, 32
16, 16, 17, 34, 33
17, 18, 19, 36, 35
18, 19, 20, 37, 36
19, 20, 21, 38, 37
20, 21, 22, 39, 38
** ... 12 like lines cut
*Nset, nset=FOOTING, generate
  1,  51,   1
*Elset, elset=FOOTING, generate
  1,  32,   1
*Nset, nset=F-SNODES, generate
 35,  51,   1
*Elset, elset=_SURF_FOOTINGBOT_S3, internal, generate
 17,  32,   1
*Elset, elset=_SURF-FTOP_S1, internal, generate
  1,  16,   1
*Surface, type=ELEMENT, name=SURF_FOOTINGBOT
_SURF_FOOTINGBOT_S3, S3
*Surface, type=ELEMENT, name=SURF-FTOP
_SURF-FTOP_S1, S1
** Section: Footing
*Solid Section, elset=FOOTING, material=FOOTING
,
*End Part
**  
*Part, name=MASS
*Node
      1,           0.,           0.
*Nset, nset=MASS-REFPT_, internal
 1,
*Nset, nset=MASS
 1,
*Nset, nset=_PickedSet5, internal
 1,
*Element, type=MASS, elset=_PickedSet5_MASS_MASS__
1, 1
*Mass, elset=_PickedSet5_MASS_MASS__
10000., 
*End Part
**  
*Part, name=PIER
*Node
      1,         10.5,         -0.5
      2,         10.5,         14.5
*Element, type=B21
1, 1, 2
*Nset, nset=PIER
 1, 2
*Elset, elset=PIER
 1,
*Elset, elset=_SURF-PIER_SPOS, internal
 1,
*Surface, type=ELEMENT, name=SURF-PIER
_SURF-PIER_SPOS, SPOS
** Section: Section-1-PIER  Profile: Profile-1
*Beam Section, elset=PIER, material=PIER, poisson = 0.3, temperature=GRADIENTS, section=RECT
1., 1.
0.,0.,-1.
*End Part
**  
*Part, name=SOIL
*Node
      1,          59.,          30.
      2,          59.,          12.
      3,          74.,          12.
      4,          74.,          30.
      5,          59.,          32.
      6,          74.,          32.
      7,          49.,          30.
      8,          49.,          12.
      9,          49.,          32.
     10,          44.,          30.
     11,          44.,          12.
     12,          44.,          32.
     13,          34.,          30.
     14,          34.,          12.
     15,          34.,          32.
     16,          29.,          30.
     17,          29.,          12.
     18,          29.,          32.
     19,          19.,          30.
     20,          19.,          12.
** ... 2221 like lines cut
*Element, type=CINPE4
 1,  1, 25, 58,  4
 2, 25, 26, 57, 58
 3, 26, 27, 56, 57
 4, 27, 28, 55, 56
 5, 28, 29, 54, 55
 6, 29, 30, 53, 54
 7, 30, 31, 52, 53
 8, 31, 32, 51, 52
 9, 32, 33, 50, 51
10, 33, 34, 49, 50
11, 34, 35, 48, 49
12, 35, 36, 47, 48
13, 36, 37, 46, 47
14, 37, 38, 45, 46
15, 38, 39, 44, 45
16, 39, 40, 43, 44
17, 40, 41, 42, 43
18, 41,  2,  3, 42
19,  5, 59, 72,  6
20, 59, 60, 71, 72
** ... 32 like lines cut
*Element, type=CPE4R
  27,    7,   73,  442,  107
  28,   73,   74,  443,  442
  29,   74,   75,  444,  443
  30,   75,   76,  445,  444
  31,   76,   77,  446,  445
  32,   77,   78,  447,  446
  33,   78,   79,  448,  447
  34,   79,   80,  449,  448
  35,   80,   81,  450,  449
  36,   81,   82,  451,  450
  37,   82,   83,  452,  451
  38,   83,   84,  453,  452
  39,   84,   85,  454,  453
  40,   85,   86,  455,  454
  41,   86,   87,  456,  455
  42,   87,   88,  457,  456
  43,   88,   89,  458,  457
  44,   89,    8,   90,  458
  45,  107,  442,  459,  106
  46,  442,  443,  460,  459
** ... 2060 like lines cut
*Nset, nset=SET-1, generate
    1,  2241,     1
*Elset, elset=SET-1, generate
    1,  2132,     1
*Nset, nset=SOIL_BOTNODES
   2,   8,  11,  14,  17,  20,  90,  91,  92,  93,  94,  95,  96,  97,  98, 150
 151, 152, 153, 154, 155, 156, 157, 158, 192, 193, 194, 195, 196, 197, 198, 199
 200, 201, 202, 203, 204, 205, 206, 207, 208, 209, 210, 211, 212, 213, 214, 215
 216, 217, 218, 219, 220, 221, 222, 223, 224, 225, 226, 227, 228, 229, 230, 333
 334, 335, 336, 337, 338, 339, 340, 341, 384, 385, 386, 387, 388, 389, 390, 391
 392,
*Nset, nset=S-F_NODES, generate
 288,  304,    1
*Elset, elset=_SURF_S-F_S4, internal, generate
 1363,  1483,     8
*Surface, type=ELEMENT, name=SURF_S-F
_SURF_S-F_S4, S4
** Section: Section-2-SET-1
*Solid Section, elset=SET-1, material=SOIL
,
*End Part
**  
**
** ASSEMBLY
**
*Assembly, name=Assembly
**  
*Instance, name=FOOTING-1, part=FOOTING
        44.5,         26.5,           0.
*End Instance
**  
*Instance, name=MASS-1, part=MASS
        52.5,         47.5,           0.
*End Instance
**  
*Instance, name=PIER-1, part=PIER
         42.,          33.,           0.
*End Instance
**  
*Instance, name=SOIL-1, part=SOIL
        13.5,           0.,           0.
*End Instance
**  
*Node
      1,         52.5,         32.5
*MPC
BEAM, SOIL-1.3, SOIL-1.22
BEAM, SOIL-1.42, SOIL-1.418
BEAM, SOIL-1.43, SOIL-1.417
BEAM, SOIL-1.44, SOIL-1.416
BEAM, SOIL-1.45, SOIL-1.415
BEAM, SOIL-1.46, SOIL-1.414
BEAM, SOIL-1.47, SOIL-1.413
BEAM, SOIL-1.48, SOIL-1.412
BEAM, SOIL-1.49, SOIL-1.411
BEAM, SOIL-1.50, SOIL-1.410
BEAM, SOIL-1.409, SOIL-1.51
BEAM, SOIL-1.52, SOIL-1.408
BEAM, SOIL-1.53, SOIL-1.407
BEAM, SOIL-1.54, SOIL-1.406
BEAM, SOIL-1.55, SOIL-1.405
BEAM, SOIL-1.56, SOIL-1.404
BEAM, SOIL-1.57, SOIL-1.403
BEAM, SOIL-1.58, SOIL-1.402
BEAM, SOIL-1.4, SOIL-1.441
BEAM, SOIL-1.66, SOIL-1.440
** ... 6 like lines cut
*Nset, nset=SET-1
 1,
*Nset, nset=Wire-1-Set-1, instance=SOIL-1
   3,   4,   6,  22,  24,  42,  43,  44,  45,  46,  47,  48,  49,  50,  51,  52
  53,  54,  55,  56,  57,  58,  66,  67,  68,  69,  70,  72, 402, 403, 404, 405
 406, 407, 408, 409, 410, 411, 412, 413, 414, 415, 416, 417, 418, 435, 436, 437
 438, 439, 440, 441
*Nset, nset=MASS-1_MASS_CNS_, internal, instance=MASS-1
 1,
*Nset, nset=SOIL-1_S-F_NODES_CNS_, internal, instance=SOIL-1, generate
 288,  304,    1
*Nset, nset=_PICKEDSET15, internal
 1,
*Nset, nset=_PickedSet14, internal
 1,
*Surface, type=NODE, name=SOIL-1_S-F_NODES_CNS__CNS_, internal
SOIL-1_S-F_NODES_CNS_, 1.
*Surface, type=NODE, name=MASS-1_MASS_CNS__CNS_, internal
MASS-1_MASS_CNS_, 1.
** Constraint: F-P-1
*Tie, name=F-P-1, adjust=yes, type=NODE TO SURFACE
MASS-1_MASS_CNS__CNS_, PIER-1.SURF-PIER
** Constraint: M-P
*Coupling, constraint name=M-P, ref node=MASS-1.MASS, surface=FOOTING-1.SURF-FTOP
*Distributing, weighting method=UNIFORM
1, 1
2, 2
** Constraint: RigidBody-1
*Rigid Body, ref node=_PickedSet14, elset=FOOTING-1.FOOTING, position=CENTER OF MASS
*End Assembly
** 
** MATERIALS
** 
*Material, name=FOOTING
*Density
 1.8,
*Elastic
 1e+07, 0.3
*Material, name=PIER
*Density
2.,
*Elastic
 3e+07, 0.3
*Plastic
400000.,0.
*Material, name=SOIL
*Damping, beta=0.00173
*Density
 1.8,
*Depvar
      2,
*Elastic, dependencies=2
  8560.,   0.48, ,     0.,     0.
  8560.,   0.48, ,     0.,  8560.
 14480.,   0.48, ,     0., 14480.
 20400.,   0.48, ,     0., 20400.
 26320.,   0.48, ,     0., 26320.
 32240.,   0.48, ,     0., 32240.
 38160.,   0.48, ,     0., 38160.
 44080.,   0.48, ,     0., 44080.
 50000.,   0.48, ,     0., 50000.
 55920.,   0.48, ,     0., 55920.
 61840.,   0.48, ,     0., 61840.
 67760.,   0.48, ,     0., 67760.
 73680.,   0.48, ,     0., 73680.
 79600.,   0.48, ,     0., 79600.
 85520.,   0.48, ,     0., 85520.
 91440.,   0.48, ,     0., 91440.
 97360.,   0.48, ,     0., 97360.
103280.,   0.48, ,     0.,103280.
109200.,   0.48, ,     0.,109200.
115120.,   0.48, ,     0.,115120.
121040.,   0.48, ,     0.,121040.
126960.,   0.48, ,     0.,126960.
*Plastic, dependencies=2, hardening=COMBINED, datatype=PARAMETERS, number backstresses=1
  0.74,  8560.,  1283., ,     0.,     0.
  0.74,  8560.,  1283., ,     0.,   4.28
  1.25, 14480.,  1283., ,     0.,   7.24
  1.77, 20400.,  1283., ,     0.,   10.2
  2.28, 26320.,  1283., ,     0.,  13.16
  2.79, 32240.,  1283., ,     0.,  16.12
   3.3, 38160.,  1283., ,     0.,  19.08
  3.82, 44080.,  1283., ,     0.,  22.04
  4.33, 50000.,  1283., ,     0.,    25.
  4.84, 55920.,  1283., ,     0.,  27.96
  5.36, 61840.,  1283., ,     0.,  30.92
  5.87, 67760.,  1283., ,     0.,  33.88
  6.38, 73680.,  1283., ,     0.,  36.84
  6.89, 79600.,  1283., ,     0.,   39.8
  7.41, 85520.,  1283., ,     0.,  42.76
  7.92, 91440.,  1283., ,     0.,  45.72
  8.43, 97360.,  1283., ,     0.,  48.68
  8.94,103280.,  1283., ,     0.,  51.64
  9.46,109200.,  1283., ,     0.,   54.6
  9.97,115120.,  1283., ,     0.,  57.56
 10.48,121040.,  1283., ,     0.,  60.52
   11.,126960.,  1283., ,     0.,  63.48
*User Defined Field
** 
** INTERACTION PROPERTIES
** 
*Surface Interaction, name=NT
1.,
*Friction, slip tolerance=0.001, taumax=5.
 0.9,
*Surface Behavior, pressure-overclosure=EXPONENTIAL
0.0001, 10.
** 
** INTERACTIONS
** 
** Interaction: NT-1
*Contact Pair, interaction=NT, small sliding, adjust=0.001
SOIL-1_S-F_NODES_CNS__CNS_, FOOTING-1.SURF_FOOTINGBOT
** ----------------------------------------------------------------
** 
** STEP: Gravity
** 
*Step, name=Gravity, nlgeom=NO, inc=100000
Grav
*Static
0.01, 1., 1e-05, 0.01
** 
** BOUNDARY CONDITIONS
** 
** Name: Disp-BC-1 Type: Displacement/Rotation
*Boundary
SOIL-1.SOIL_BOTNODES, 1, 1
** Name: Disp-BC-2 Type: Displacement/Rotation
*Boundary
SOIL-1.SOIL_BOTNODES, 2, 2
** Name: Disp-BC-3 Type: Displacement/Rotation
*Boundary
SET-1, 1, 1
SET-1, 6, 6
** Name: Disp-BC-4 Type: Displacement/Rotation
*Boundary
MASS-1.MASS, 1, 1
MASS-1.MASS, 6, 6
** 
** LOADS
** 
** Name: Load-1   Type: Body force
*Dload
FOOTING-1.FOOTING, BY, -9.81
** 
** OUTPUT REQUESTS
** 
*Restart, write, frequency=0
** 
** FIELD OUTPUT: F-Output-1
** 
*Output, field
*Contact Output
CDISP, CDSTRESS, CFORCE, CSTRESS, CSTRESSETOS
** 
** FIELD OUTPUT: F-Output-2
** 
*Node Output
CF, RF, RM, RT
** 
** FIELD OUTPUT: F-Output-3
** 
*Element Output, directions=YES
GRAV, P
** 
** FIELD OUTPUT: F-Output-4
** 
*Node Output
U, UR, UT
** 
** FIELD OUTPUT: F-Output-5
** 
*Output, field, frequency=10
*Element Output, directions=YES
E, S
** 
** HISTORY OUTPUT: H-Output-1
** 
*Output, history, variable=PRESELECT
*End Step
